REMARK SMILES O=c1cccc2cc(O)c(O)c(O)c2c1O
REMARK SMILES IDX 1 1 14 2 6 3 12 4 7 5 15 6 10 7 8 8 5 9 2 10 4 11 3 12 13 13
REMARK SMILES IDX 11 15 16 17 9 19
REMARK H PARENT 13 14 11 16 16 18 9 20
REMARK Flexibility Score: inf
ROOT
ATOM      1  O   UNL     1      -3.441  -0.740  -1.193  1.00  0.00    -0.286 OA
ATOM      2  C   UNL     1      -0.154  -0.325   0.099  1.00  0.00     0.074 A 
ATOM      3  C   UNL     1       0.010   1.159   0.068  1.00  0.00    -0.007 A 
ATOM      4  C   UNL     1       1.113  -1.079   0.304  1.00  0.00     0.173 A 
ATOM      5  C   UNL     1       1.320   1.685  -0.347  1.00  0.00     0.059 A 
ATOM      6  C   UNL     1      -1.330  -0.963  -0.141  1.00  0.00     0.175 A 
ATOM      7  C   UNL     1       2.309  -0.496   0.086  1.00  0.00     0.201 A 
ATOM      8  C   UNL     1       2.401   0.887  -0.359  1.00  0.00     0.162 A 
ATOM      9  C   UNL     1      -0.931   2.063   0.395  1.00  0.00     0.009 A 
ATOM     10  C   UNL     1      -2.644  -0.293  -0.371  1.00  0.00     0.220 A 
ATOM     11  C   UNL     1      -2.262   1.817   0.876  1.00  0.00     0.005 A 
ATOM     12  C   UNL     1      -3.055   0.805   0.523  1.00  0.00     0.056 A 
ENDROOT
BRANCH   4  13
ATOM     13  O   UNL     1       1.002  -2.362   0.798  1.00  0.00    -0.504 OA
ATOM     14  H   UNL     1       0.091  -2.517   1.098  1.00  0.00     0.293 HD
ENDBRANCH   4  13
BRANCH   7  15
ATOM     15  O   UNL     1       3.485  -1.173   0.340  1.00  0.00    -0.502 OA
ATOM     16  H   UNL     1       4.225  -0.572   0.147  1.00  0.00     0.293 HD
ENDBRANCH   7  15
BRANCH   6  17
ATOM     17  O   UNL     1      -1.440  -2.340  -0.275  1.00  0.00    -0.504 OA
ATOM     18  H   UNL     1      -2.369  -2.558  -0.461  1.00  0.00     0.293 HD
ENDBRANCH   6  17
BRANCH   8  19
ATOM     19  O   UNL     1       3.619   1.355  -0.803  1.00  0.00    -0.504 OA
ATOM     20  H   UNL     1       3.516   2.285  -1.066  1.00  0.00     0.293 HD
ENDBRANCH   8  19
TORSDOF 4
