MODEL 1
REMARK VINA RESULT:    -4.631      0.000      0.000
REMARK INTER + INTRA:          -8.644
REMARK INTER:                  -5.824
REMARK INTRA:                  -2.820
REMARK CONF_INDEPENDENT:        1.193
REMARK UNBOUND:                -2.820
REMARK SMILES O=c1cccc2cc(O)c(O)c(O)c2c1O
REMARK SMILES IDX 1 1 14 2 6 3 12 4 7 5 15 6 10 7 8 8 5 9 2 10 4 11 3 12 13 13
REMARK SMILES IDX 11 15 16 17 9 19
REMARK H PARENT 13 14 11 16 16 18 9 20
REMARK Flexibility Score: inf
ROOT
ATOM      1  O   UNL     1      12.178  12.145  26.009  1.00  0.00    -0.286 OA
ATOM      2  C   UNL     1       9.502  10.115  27.179  1.00  0.00     0.074 A 
ATOM      3  C   UNL     1       8.399  10.480  26.241  1.00  0.00    -0.007 A 
ATOM      4  C   UNL     1       9.060   9.366  28.387  1.00  0.00     0.173 A 
ATOM      5  C   UNL     1       7.049  10.622  26.810  1.00  0.00     0.059 A 
ATOM      6  C   UNL     1      10.793  10.509  27.020  1.00  0.00     0.175 A 
ATOM      7  C   UNL     1       7.768   9.373  28.772  1.00  0.00     0.201 A 
ATOM      8  C   UNL     1       6.765  10.115  28.022  1.00  0.00     0.162 A 
ATOM      9  C   UNL     1       8.524  10.684  24.918  1.00  0.00     0.009 A 
ATOM     10  C   UNL     1      11.325  11.273  25.853  1.00  0.00     0.220 A 
ATOM     11  C   UNL     1       9.708  10.560  24.113  1.00  0.00     0.005 A 
ATOM     12  C   UNL     1      10.953  10.851  24.490  1.00  0.00     0.056 A 
ENDROOT
BRANCH   4  13
ATOM     13  O   UNL     1      10.014   8.610  29.036  1.00  0.00    -0.504 OA
ATOM     14  H   UNL     1       9.636   8.242  29.852  1.00  0.00     0.293 HD
ENDBRANCH   4  13
BRANCH   7  15
ATOM     15  O   UNL     1       7.345   8.625  29.852  1.00  0.00    -0.502 OA
ATOM     16  H   UNL     1       8.115   8.150  30.208  1.00  0.00     0.293 HD
ENDBRANCH   7  15
BRANCH   6  17
ATOM     17  O   UNL     1      11.778  10.308  27.978  1.00  0.00    -0.504 OA
ATOM     18  H   UNL     1      12.528  10.892  27.775  1.00  0.00     0.293 HD
ENDBRANCH   6  17
BRANCH   8  19
ATOM     19  O   UNL     1       5.521  10.295  28.588  1.00  0.00    -0.504 OA
ATOM     20  H   UNL     1       5.447   9.715  29.364  1.00  0.00     0.293 HD
ENDBRANCH   8  19
TORSDOF 4
ENDMDL
MODEL 2
REMARK VINA RESULT:    -4.287      1.967      3.516
REMARK INTER + INTRA:          -8.031
REMARK INTER:                  -5.480
REMARK INTRA:                  -2.551
REMARK CONF_INDEPENDENT:        1.193
REMARK UNBOUND:                -2.551
REMARK SMILES O=c1cccc2cc(O)c(O)c(O)c2c1O
REMARK SMILES IDX 1 1 14 2 6 3 12 4 7 5 15 6 10 7 8 8 5 9 2 10 4 11 3 12 13 13
REMARK SMILES IDX 11 15 16 17 9 19
REMARK H PARENT 13 14 11 16 16 18 9 20
REMARK Flexibility Score: inf
ROOT
ATOM      1  O   UNL     1      10.122   9.420  28.351  1.00  0.00    -0.286 OA
ATOM      2  C   UNL     1       6.676  10.290  28.225  1.00  0.00     0.074 A 
ATOM      3  C   UNL     1       6.601  11.094  26.969  1.00  0.00    -0.007 A 
ATOM      4  C   UNL     1       5.479  10.408  29.102  1.00  0.00     0.173 A 
ATOM      5  C   UNL     1       5.745  12.291  26.983  1.00  0.00     0.059 A 
ATOM      6  C   UNL     1       7.772   9.585  28.610  1.00  0.00     0.175 A 
ATOM      7  C   UNL     1       4.613  11.432  28.958  1.00  0.00     0.201 A 
ATOM      8  C   UNL     1       4.821  12.455  27.945  1.00  0.00     0.162 A 
ATOM      9  C   UNL     1       7.240  10.819  25.817  1.00  0.00     0.009 A 
ATOM     10  C   UNL     1       9.020   9.423  27.806  1.00  0.00     0.220 A 
ATOM     11  C   UNL     1       8.086   9.696  25.524  1.00  0.00     0.005 A 
ATOM     12  C   UNL     1       8.912   9.085  26.375  1.00  0.00     0.056 A 
ENDROOT
BRANCH   4  13
ATOM     13  O   UNL     1       5.263   9.386  30.003  1.00  0.00    -0.504 OA
ATOM     14  H   UNL     1       4.345   9.076  29.929  1.00  0.00     0.293 HD
ENDBRANCH   4  13
BRANCH   7  15
ATOM     15  O   UNL     1       3.468  11.505  29.726  1.00  0.00    -0.502 OA
ATOM     16  H   UNL     1       3.378  10.667  30.211  1.00  0.00     0.293 HD
ENDBRANCH   7  15
BRANCH   6  17
ATOM     17  O   UNL     1       7.895   8.979  29.852  1.00  0.00    -0.504 OA
ATOM     18  H   UNL     1       8.809   8.664  29.952  1.00  0.00     0.293 HD
ENDBRANCH   6  17
BRANCH   8  19
ATOM     19  O   UNL     1       4.056  13.601  28.001  1.00  0.00    -0.504 OA
ATOM     20  H   UNL     1       3.241  13.405  28.492  1.00  0.00     0.293 HD
ENDBRANCH   8  19
TORSDOF 4
ENDMDL
MODEL 3
REMARK VINA RESULT:    -3.986      1.281      1.676
REMARK INTER + INTRA:          -8.120
REMARK INTER:                  -5.179
REMARK INTRA:                  -2.941
REMARK CONF_INDEPENDENT:        1.193
REMARK UNBOUND:                -2.941
REMARK SMILES O=c1cccc2cc(O)c(O)c(O)c2c1O
REMARK SMILES IDX 1 1 14 2 6 3 12 4 7 5 15 6 10 7 8 8 5 9 2 10 4 11 3 12 13 13
REMARK SMILES IDX 11 15 16 17 9 19
REMARK H PARENT 13 14 11 16 16 18 9 20
REMARK Flexibility Score: inf
ROOT
ATOM      1  O   UNL     1      10.911  11.720  26.305  1.00  0.00    -0.286 OA
ATOM      2  C   UNL     1       7.900  10.271  27.521  1.00  0.00     0.074 A 
ATOM      3  C   UNL     1       6.894  10.762  26.532  1.00  0.00    -0.007 A 
ATOM      4  C   UNL     1       7.312   9.692  28.760  1.00  0.00     0.173 A 
ATOM      5  C   UNL     1       5.581  11.174  27.052  1.00  0.00     0.059 A 
ATOM      6  C   UNL     1       9.243  10.422  27.375  1.00  0.00     0.175 A 
ATOM      7  C   UNL     1       6.035   9.951  29.107  1.00  0.00     0.201 A 
ATOM      8  C   UNL     1       5.191  10.806  28.284  1.00  0.00     0.162 A 
ATOM      9  C   UNL     1       7.076  10.853  25.202  1.00  0.00     0.009 A 
ATOM     10  C   UNL     1       9.921  11.003  26.179  1.00  0.00     0.220 A 
ATOM     11  C   UNL     1       8.233  10.471  24.441  1.00  0.00     0.005 A 
ATOM     12  C   UNL     1       9.503  10.565  24.835  1.00  0.00     0.056 A 
ENDROOT
BRANCH   4  13
ATOM     13  O   UNL     1       8.106   8.825  29.481  1.00  0.00    -0.504 OA
ATOM     14  H   UNL     1       8.946   9.261  29.701  1.00  0.00     0.293 HD
ENDBRANCH   4  13
BRANCH   7  15
ATOM     15  O   UNL     1       5.468   9.361  30.219  1.00  0.00    -0.502 OA
ATOM     16  H   UNL     1       4.545   9.661  30.280  1.00  0.00     0.293 HD
ENDBRANCH   7  15
BRANCH   6  17
ATOM     17  O   UNL     1      10.160  10.115  28.370  1.00  0.00    -0.504 OA
ATOM     18  H   UNL     1      11.000  10.559  28.163  1.00  0.00     0.293 HD
ENDBRANCH   6  17
BRANCH   8  19
ATOM     19  O   UNL     1       3.989  11.237  28.803  1.00  0.00    -0.504 OA
ATOM     20  H   UNL     1       3.659  10.564  29.421  1.00  0.00     0.293 HD
ENDBRANCH   8  19
TORSDOF 4
ENDMDL
MODEL 4
REMARK VINA RESULT:    -3.789      2.018      4.543
REMARK INTER + INTRA:          -7.788
REMARK INTER:                  -4.982
REMARK INTRA:                  -2.806
REMARK CONF_INDEPENDENT:        1.193
REMARK UNBOUND:                -2.806
REMARK SMILES O=c1cccc2cc(O)c(O)c(O)c2c1O
REMARK SMILES IDX 1 1 14 2 6 3 12 4 7 5 15 6 10 7 8 8 5 9 2 10 4 11 3 12 13 13
REMARK SMILES IDX 11 15 16 17 9 19
REMARK H PARENT 13 14 11 16 16 18 9 20
REMARK Flexibility Score: inf
ROOT
ATOM      1  O   UNL     1       5.191   9.716  29.817  1.00  0.00    -0.286 OA
ATOM      2  C   UNL     1       7.908   9.642  27.524  1.00  0.00     0.074 A 
ATOM      3  C   UNL     1       7.283  10.184  26.280  1.00  0.00    -0.007 A 
ATOM      4  C   UNL     1       9.228   8.987  27.314  1.00  0.00     0.173 A 
ATOM      5  C   UNL     1       7.659   9.551  25.006  1.00  0.00     0.059 A 
ATOM      6  C   UNL     1       7.299   9.641  28.739  1.00  0.00     0.175 A 
ATOM      7  C   UNL     1       9.613   8.584  26.086  1.00  0.00     0.201 A 
ATOM      8  C   UNL     1       8.752   8.774  24.928  1.00  0.00     0.162 A 
ATOM      9  C   UNL     1       6.412  11.207  26.216  1.00  0.00     0.009 A 
ATOM     10  C   UNL     1       5.974  10.259  29.042  1.00  0.00     0.220 A 
ATOM     11  C   UNL     1       5.926  12.020  27.295  1.00  0.00     0.005 A 
ATOM     12  C   UNL     1       5.686  11.617  28.543  1.00  0.00     0.056 A 
ENDROOT
BRANCH   4  13
ATOM     13  O   UNL     1      10.056   8.887  28.412  1.00  0.00    -0.504 OA
ATOM     14  H   UNL     1       9.641   8.320  29.082  1.00  0.00     0.293 HD
ENDBRANCH   4  13
BRANCH   7  15
ATOM     15  O   UNL     1      10.864   8.037  25.879  1.00  0.00    -0.502 OA
ATOM     16  H   UNL     1      10.956   7.850  24.929  1.00  0.00     0.293 HD
ENDBRANCH   7  15
BRANCH   6  17
ATOM     17  O   UNL     1       7.813   8.990  29.852  1.00  0.00    -0.504 OA
ATOM     18  H   UNL     1       8.762   9.194  29.917  1.00  0.00     0.293 HD
ENDBRANCH   6  17
BRANCH   8  19
ATOM     19  O   UNL     1       9.078   8.129  23.754  1.00  0.00    -0.504 OA
ATOM     20  H   UNL     1       9.973   7.760  23.842  1.00  0.00     0.293 HD
ENDBRANCH   8  19
TORSDOF 4
ENDMDL
MODEL 5
REMARK VINA RESULT:    -3.755      4.083      5.421
REMARK INTER + INTRA:          -7.720
REMARK INTER:                  -4.948
REMARK INTRA:                  -2.772
REMARK CONF_INDEPENDENT:        1.193
REMARK UNBOUND:                -2.772
REMARK SMILES O=c1cccc2cc(O)c(O)c(O)c2c1O
REMARK SMILES IDX 1 1 14 2 6 3 12 4 7 5 15 6 10 7 8 8 5 9 2 10 4 11 3 12 13 13
REMARK SMILES IDX 11 15 16 17 9 19
REMARK H PARENT 13 14 11 16 16 18 9 20
REMARK Flexibility Score: inf
ROOT
ATOM      1  O   UNL     1      14.456   8.654  27.227  1.00  0.00    -0.286 OA
ATOM      2  C   UNL     1      12.779  11.773  27.546  1.00  0.00     0.074 A 
ATOM      3  C   UNL     1      13.698  12.699  26.821  1.00  0.00    -0.007 A 
ATOM      4  C   UNL     1      11.752  12.455  28.381  1.00  0.00     0.173 A 
ATOM      5  C   UNL     1      13.912  14.033  27.405  1.00  0.00     0.059 A 
ATOM      6  C   UNL     1      12.910  10.420  27.546  1.00  0.00     0.175 A 
ATOM      7  C   UNL     1      11.900  13.745  28.744  1.00  0.00     0.201 A 
ATOM      8  C   UNL     1      13.068  14.512  28.334  1.00  0.00     0.162 A 
ATOM      9  C   UNL     1      14.345  12.429  25.673  1.00  0.00     0.009 A 
ATOM     10  C   UNL     1      13.915   9.651  26.754  1.00  0.00     0.220 A 
ATOM     11  C   UNL     1      14.272  11.234  24.878  1.00  0.00     0.005 A 
ATOM     12  C   UNL     1      14.122   9.991  25.334  1.00  0.00     0.056 A 
ENDROOT
BRANCH   4  13
ATOM     13  O   UNL     1      10.620  11.731  28.692  1.00  0.00    -0.504 OA
ATOM     14  H   UNL     1       9.960  12.318  29.096  1.00  0.00     0.293 HD
ENDBRANCH   4  13
BRANCH   7  15
ATOM     15  O   UNL     1      10.917  14.398  29.461  1.00  0.00    -0.502 OA
ATOM     16  H   UNL     1      11.041  15.355  29.338  1.00  0.00     0.293 HD
ENDBRANCH   7  15
BRANCH   6  17
ATOM     17  O   UNL     1      12.157   9.578  28.352  1.00  0.00    -0.504 OA
ATOM     18  H   UNL     1      11.215   9.766  28.199  1.00  0.00     0.293 HD
ENDBRANCH   6  17
BRANCH   8  19
ATOM     19  O   UNL     1      13.293  15.734  28.930  1.00  0.00    -0.504 OA
ATOM     20  H   UNL     1      12.453  16.061  29.293  1.00  0.00     0.293 HD
ENDBRANCH   8  19
TORSDOF 4
ENDMDL
MODEL 6
REMARK VINA RESULT:    -3.737      1.434      2.134
REMARK INTER + INTRA:          -7.964
REMARK INTER:                  -4.930
REMARK INTRA:                  -3.034
REMARK CONF_INDEPENDENT:        1.193
REMARK UNBOUND:                -3.034
REMARK SMILES O=c1cccc2cc(O)c(O)c(O)c2c1O
REMARK SMILES IDX 1 1 14 2 6 3 12 4 7 5 15 6 10 7 8 8 5 9 2 10 4 11 3 12 13 13
REMARK SMILES IDX 11 15 16 17 9 19
REMARK H PARENT 13 14 11 16 16 18 9 20
REMARK Flexibility Score: inf
ROOT
ATOM      1  O   UNL     1      12.612  12.961  25.018  1.00  0.00    -0.286 OA
ATOM      2  C   UNL     1      11.193  10.126  26.629  1.00  0.00     0.074 A 
ATOM      3  C   UNL     1       9.755  10.233  26.243  1.00  0.00    -0.007 A 
ATOM      4  C   UNL     1      11.462   9.169  27.737  1.00  0.00     0.173 A 
ATOM      5  C   UNL     1       8.754   9.912  27.272  1.00  0.00     0.059 A 
ATOM      6  C   UNL     1      12.179  10.900  26.103  1.00  0.00     0.175 A 
ATOM      7  C   UNL     1      10.470   8.755  28.551  1.00  0.00     0.201 A 
ATOM      8  C   UNL     1       9.106   9.232  28.376  1.00  0.00     0.162 A 
ATOM      9  C   UNL     1       9.288  10.588  25.032  1.00  0.00     0.009 A 
ATOM     10  C   UNL     1      12.002  11.894  25.003  1.00  0.00     0.220 A 
ATOM     11  C   UNL     1      10.044  10.898  23.851  1.00  0.00     0.005 A 
ATOM     12  C   UNL     1      11.228  11.510  23.809  1.00  0.00     0.056 A 
ENDROOT
BRANCH   4  13
ATOM     13  O   UNL     1      12.746   8.673  27.835  1.00  0.00    -0.504 OA
ATOM     14  H   UNL     1      13.368   9.300  27.429  1.00  0.00     0.293 HD
ENDBRANCH   4  13
BRANCH   7  15
ATOM     15  O   UNL     1      10.706   7.817  29.536  1.00  0.00    -0.502 OA
ATOM     16  H   UNL     1       9.930   7.796  30.122  1.00  0.00     0.293 HD
ENDBRANCH   7  15
BRANCH   6  17
ATOM     17  O   UNL     1      13.481  10.911  26.584  1.00  0.00    -0.504 OA
ATOM     18  H   UNL     1      13.930  11.702  26.238  1.00  0.00     0.293 HD
ENDBRANCH   6  17
BRANCH   8  19
ATOM     19  O   UNL     1       8.189   8.980  29.373  1.00  0.00    -0.504 OA
ATOM     20  H   UNL     1       8.582   8.354  30.005  1.00  0.00     0.293 HD
ENDBRANCH   8  19
TORSDOF 4
ENDMDL
MODEL 7
REMARK VINA RESULT:    -3.357      1.966      4.043
REMARK INTER + INTRA:          -7.766
REMARK INTER:                  -4.550
REMARK INTRA:                  -3.216
REMARK CONF_INDEPENDENT:        1.193
REMARK UNBOUND:                -3.216
REMARK SMILES O=c1cccc2cc(O)c(O)c(O)c2c1O
REMARK SMILES IDX 1 1 14 2 6 3 12 4 7 5 15 6 10 7 8 8 5 9 2 10 4 11 3 12 13 13
REMARK SMILES IDX 11 15 16 17 9 19
REMARK H PARENT 13 14 11 16 16 18 9 20
REMARK Flexibility Score: inf
ROOT
ATOM      1  O   UNL     1       5.455  10.117  23.961  1.00  0.00    -0.286 OA
ATOM      2  C   UNL     1       8.275   9.991  26.123  1.00  0.00     0.074 A 
ATOM      3  C   UNL     1       9.410   9.929  25.154  1.00  0.00    -0.007 A 
ATOM      4  C   UNL     1       8.645   9.655  27.525  1.00  0.00     0.173 A 
ATOM      5  C   UNL     1      10.531   9.034  25.484  1.00  0.00     0.059 A 
ATOM      6  C   UNL     1       6.986  10.229  25.765  1.00  0.00     0.175 A 
ATOM      7  C   UNL     1       9.784   8.988  27.800  1.00  0.00     0.201 A 
ATOM      8  C   UNL     1      10.688   8.573  26.737  1.00  0.00     0.162 A 
ATOM      9  C   UNL     1       9.507  10.624  24.007  1.00  0.00     0.009 A 
ATOM     10  C   UNL     1       6.519  10.560  24.386  1.00  0.00     0.220 A 
ATOM     11  C   UNL     1       8.585  11.593  23.482  1.00  0.00     0.005 A 
ATOM     12  C   UNL     1       7.258  11.566  23.602  1.00  0.00     0.056 A 
ENDROOT
BRANCH   4  13
ATOM     13  O   UNL     1       7.812  10.125  28.519  1.00  0.00    -0.504 OA
ATOM     14  H   UNL     1       6.923  10.270  28.156  1.00  0.00     0.293 HD
ENDBRANCH   4  13
BRANCH   7  15
ATOM     15  O   UNL     1      10.161   8.735  29.104  1.00  0.00    -0.502 OA
ATOM     16  H   UNL     1       9.377   8.846  29.670  1.00  0.00     0.293 HD
ENDBRANCH   7  15
BRANCH   6  17
ATOM     17  O   UNL     1       5.916  10.121  26.643  1.00  0.00    -0.504 OA
ATOM     18  H   UNL     1       5.094  10.090  26.124  1.00  0.00     0.293 HD
ENDBRANCH   6  17
BRANCH   8  19
ATOM     19  O   UNL     1      11.699   7.688  27.042  1.00  0.00    -0.504 OA
ATOM     20  H   UNL     1      11.708   7.548  28.004  1.00  0.00     0.293 HD
ENDBRANCH   8  19
TORSDOF 4
ENDMDL
MODEL 8
REMARK VINA RESULT:    -3.296      2.571      3.219
REMARK INTER + INTRA:          -7.750
REMARK INTER:                  -4.490
REMARK INTRA:                  -3.261
REMARK CONF_INDEPENDENT:        1.193
REMARK UNBOUND:                -3.261
REMARK SMILES O=c1cccc2cc(O)c(O)c(O)c2c1O
REMARK SMILES IDX 1 1 14 2 6 3 12 4 7 5 15 6 10 7 8 8 5 9 2 10 4 11 3 12 13 13
REMARK SMILES IDX 11 15 16 17 9 19
REMARK H PARENT 13 14 11 16 16 18 9 20
REMARK Flexibility Score: inf
ROOT
ATOM      1  O   UNL     1      11.898  10.514  28.207  1.00  0.00    -0.286 OA
ATOM      2  C   UNL     1       9.800   9.454  25.539  1.00  0.00     0.074 A 
ATOM      3  C   UNL     1       9.496  10.743  24.848  1.00  0.00    -0.007 A 
ATOM      4  C   UNL     1       8.925   8.320  25.134  1.00  0.00     0.173 A 
ATOM      5  C   UNL     1       8.123  10.938  24.356  1.00  0.00     0.059 A 
ATOM      6  C   UNL     1      10.719   9.325  26.531  1.00  0.00     0.175 A 
ATOM      7  C   UNL     1       7.748   8.539  24.515  1.00  0.00     0.201 A 
ATOM      8  C   UNL     1       7.292   9.890  24.224  1.00  0.00     0.162 A 
ATOM      9  C   UNL     1      10.368  11.743  24.625  1.00  0.00     0.009 A 
ATOM     10  C   UNL     1      11.628  10.407  27.013  1.00  0.00     0.220 A 
ATOM     11  C   UNL     1      11.765  11.785  24.954  1.00  0.00     0.005 A 
ATOM     12  C   UNL     1      12.342  11.236  26.024  1.00  0.00     0.056 A 
ENDROOT
BRANCH   4  13
ATOM     13  O   UNL     1       9.414   7.048  25.352  1.00  0.00    -0.504 OA
ATOM     14  H   UNL     1      10.022   7.059  26.110  1.00  0.00     0.293 HD
ENDBRANCH   4  13
BRANCH   7  15
ATOM     15  O   UNL     1       6.969   7.485  24.080  1.00  0.00    -0.502 OA
ATOM     16  H   UNL     1       7.349   6.664  24.435  1.00  0.00     0.293 HD
ENDBRANCH   7  15
BRANCH   6  17
ATOM     17  O   UNL     1      10.878   8.167  27.280  1.00  0.00    -0.504 OA
ATOM     18  H   UNL     1      11.324   8.398  28.113  1.00  0.00     0.293 HD
ENDBRANCH   6  17
BRANCH   8  19
ATOM     19  O   UNL     1       5.987  10.071  23.820  1.00  0.00    -0.504 OA
ATOM     20  H   UNL     1       5.605   9.202  23.607  1.00  0.00     0.293 HD
ENDBRANCH   8  19
TORSDOF 4
ENDMDL
MODEL 9
REMARK VINA RESULT:    -3.262      2.407      4.831
REMARK INTER + INTRA:          -7.740
REMARK INTER:                  -4.455
REMARK INTRA:                  -3.285
REMARK CONF_INDEPENDENT:        1.193
REMARK UNBOUND:                -3.285
REMARK SMILES O=c1cccc2cc(O)c(O)c(O)c2c1O
REMARK SMILES IDX 1 1 14 2 6 3 12 4 7 5 15 6 10 7 8 8 5 9 2 10 4 11 3 12 13 13
REMARK SMILES IDX 11 15 16 17 9 19
REMARK H PARENT 13 14 11 16 16 18 9 20
REMARK Flexibility Score: inf
ROOT
ATOM      1  O   UNL     1       5.845  10.109  24.067  1.00  0.00    -0.286 OA
ATOM      2  C   UNL     1       9.273  10.281  24.995  1.00  0.00     0.074 A 
ATOM      3  C   UNL     1       9.413   9.100  25.899  1.00  0.00    -0.007 A 
ATOM      4  C   UNL     1      10.408  11.242  25.060  1.00  0.00     0.173 A 
ATOM      5  C   UNL     1      10.242   9.266  27.104  1.00  0.00     0.059 A 
ATOM      6  C   UNL     1       8.168  10.535  24.246  1.00  0.00     0.175 A 
ATOM      7  C   UNL     1      11.260  11.238  26.105  1.00  0.00     0.201 A 
ATOM      8  C   UNL     1      11.098  10.297  27.204  1.00  0.00     0.162 A 
ATOM      9  C   UNL     1       8.856   7.891  25.708  1.00  0.00     0.009 A 
ATOM     10  C   UNL     1       6.979   9.640  24.130  1.00  0.00     0.220 A 
ATOM     11  C   UNL     1       8.053   7.454  24.599  1.00  0.00     0.005 A 
ATOM     12  C   UNL     1       7.187   8.197  23.910  1.00  0.00     0.056 A 
ENDROOT
BRANCH   4  13
ATOM     13  O   UNL     1      10.585  12.072  23.973  1.00  0.00    -0.504 OA
ATOM     14  H   UNL     1       9.722  12.280  23.578  1.00  0.00     0.293 HD
ENDBRANCH   4  13
BRANCH   7  15
ATOM     15  O   UNL     1      12.351  12.083  26.133  1.00  0.00    -0.502 OA
ATOM     16  H   UNL     1      12.344  12.610  25.316  1.00  0.00     0.293 HD
ENDBRANCH   7  15
BRANCH   6  17
ATOM     17  O   UNL     1       7.978  11.715  23.539  1.00  0.00    -0.504 OA
ATOM     18  H   UNL     1       7.032  11.797  23.327  1.00  0.00     0.293 HD
ENDBRANCH   6  17
BRANCH   8  19
ATOM     19  O   UNL     1      11.834  10.494  28.352  1.00  0.00    -0.504 OA
ATOM     20  H   UNL     1      12.460  11.221  28.197  1.00  0.00     0.293 HD
ENDBRANCH   8  19
TORSDOF 4
ENDMDL
