MODEL 1
REMARK VINA RESULT:    -4.401      0.000      0.000
REMARK INTER + INTRA:          -6.535
REMARK INTER:                  -5.595
REMARK INTRA:                  -0.940
REMARK CONF_INDEPENDENT:        1.193
REMARK UNBOUND:                -0.940
REMARK  4 active torsions:
REMARK  status: ('A' for Active; 'I' for Inactive)
REMARK    1  A    between atoms: O3_3  and  C6_12 
REMARK    2  A    between atoms: O5_5  and  C8_14 
REMARK    3  A    between atoms: C2_8  and  C6_12 
REMARK    4  A    between atoms: C7_13  and  C8_14 
ROOT
ATOM      1  O1  UNK     1      10.721  10.602  28.216  1.00  0.00    -0.332 OA
ATOM      2  O2  UNK     1      13.202  10.316  24.876  1.00  0.00    -0.279 OA
ATOM      3  N1  UNK     1      12.522   9.623  27.027  1.00  0.00    -0.204 NA
ATOM      4  C1  UNK     1      12.148  10.674  27.977  1.00  0.00     0.219 A 
ATOM      5  C2  UNK     1      11.458   8.663  26.901  1.00  0.00     0.222 C 
ATOM      6  C3  UNK     1      12.693  11.695  26.963  1.00  0.00     0.145 A 
ATOM      7  C4  UNK     1      12.915  10.482  26.040  1.00  0.00     0.206 A 
ATOM      8  C5  UNK     1      10.338   9.389  27.611  1.00  0.00     0.075 C 
ATOM      9  C7  UNK     1       9.064   8.984  27.643  1.00  0.00     0.033 C 
ENDROOT
BRANCH   5  10
ATOM     10  C6  UNK     1      11.852   7.444  27.668  1.00  0.00     0.165 C 
ATOM     11  O4  UNK     1      11.845   6.305  27.227  1.00  0.00    -0.649 OA
BRANCH  10  12
ATOM     12  O3  UNK     1      12.220   7.772  28.930  1.00  0.00    -0.775 OA
ATOM     13  H8  UNK     1      12.283   8.743  29.054  1.00  0.00     0.167 HD
ENDBRANCH  10  12
ENDBRANCH   5  10
BRANCH   9  14
ATOM     14  C8  UNK     1       7.974   9.717  28.352  1.00  0.00     0.194 C 
BRANCH  14  15
ATOM     15  O5  UNK     1       7.647   9.010  29.541  1.00  0.00    -0.397 OA
ATOM     16  H9  UNK     1       8.465   8.605  29.881  1.00  0.00     0.209 HD
ENDBRANCH  14  15
ENDBRANCH   9  14
TORSDOF 4
ENDMDL
MODEL 2
REMARK VINA RESULT:    -4.379      2.017      3.044
REMARK INTER + INTRA:          -6.412
REMARK INTER:                  -5.572
REMARK INTRA:                  -0.840
REMARK CONF_INDEPENDENT:        1.193
REMARK UNBOUND:                -0.840
REMARK  4 active torsions:
REMARK  status: ('A' for Active; 'I' for Inactive)
REMARK    1  A    between atoms: O3_3  and  C6_12 
REMARK    2  A    between atoms: O5_5  and  C8_14 
REMARK    3  A    between atoms: C2_8  and  C6_12 
REMARK    4  A    between atoms: C7_13  and  C8_14 
ROOT
ATOM      1  O1  UNK     1      10.720   9.713  28.272  1.00  0.00    -0.332 OA
ATOM      2  O2  UNK     1      10.081   9.788  24.152  1.00  0.00    -0.279 OA
ATOM      3  N1  UNK     1      11.418  10.183  26.057  1.00  0.00    -0.204 NA
ATOM      4  C1  UNK     1      10.746  10.728  27.239  1.00  0.00     0.219 A 
ATOM      5  C2  UNK     1      12.125   8.977  26.397  1.00  0.00     0.222 C 
ATOM      6  C3  UNK     1       9.503  10.937  26.356  1.00  0.00     0.145 A 
ATOM      7  C4  UNK     1      10.315  10.236  25.251  1.00  0.00     0.206 A 
ATOM      8  C5  UNK     1      11.573   8.707  27.778  1.00  0.00     0.075 C 
ATOM      9  C7  UNK     1      11.799   7.596  28.487  1.00  0.00     0.033 C 
ENDROOT
BRANCH   5  10
ATOM     10  C6  UNK     1      13.578   9.310  26.478  1.00  0.00     0.165 C 
ATOM     11  O4  UNK     1      14.431   8.609  27.002  1.00  0.00    -0.649 OA
BRANCH  10  12
ATOM     12  O3  UNK     1      13.828  10.505  25.889  1.00  0.00    -0.775 OA
ATOM     13  H8  UNK     1      13.150  10.732  25.217  1.00  0.00     0.167 HD
ENDBRANCH  10  12
ENDBRANCH   5  10
BRANCH   9  14
ATOM     14  C8  UNK     1      11.243   7.351  29.852  1.00  0.00     0.194 C 
BRANCH  14  15
ATOM     15  O5  UNK     1      11.470   5.992  30.198  1.00  0.00    -0.397 OA
ATOM     16  H9  UNK     1      12.017   5.977  31.004  1.00  0.00     0.209 HD
ENDBRANCH  14  15
ENDBRANCH   9  14
TORSDOF 4
ENDMDL
MODEL 3
REMARK VINA RESULT:    -4.347      2.105      3.993
REMARK INTER + INTRA:          -6.423
REMARK INTER:                  -5.540
REMARK INTRA:                  -0.883
REMARK CONF_INDEPENDENT:        1.193
REMARK UNBOUND:                -0.883
REMARK  4 active torsions:
REMARK  status: ('A' for Active; 'I' for Inactive)
REMARK    1  A    between atoms: O3_3  and  C6_12 
REMARK    2  A    between atoms: O5_5  and  C8_14 
REMARK    3  A    between atoms: C2_8  and  C6_12 
REMARK    4  A    between atoms: C7_13  and  C8_14 
ROOT
ATOM      1  O1  UNK     1      10.055   7.480  26.105  1.00  0.00    -0.332 OA
ATOM      2  O2  UNK     1       9.972  11.141  24.111  1.00  0.00    -0.279 OA
ATOM      3  N1  UNK     1       9.925   9.846  26.083  1.00  0.00    -0.204 NA
ATOM      4  C1  UNK     1       9.146   8.606  26.045  1.00  0.00     0.219 A 
ATOM      5  C2  UNK     1      11.275   9.574  26.503  1.00  0.00     0.222 C 
ATOM      6  C3  UNK     1       8.602   9.066  24.682  1.00  0.00     0.145 A 
ATOM      7  C4  UNK     1       9.570  10.254  24.829  1.00  0.00     0.206 A 
ATOM      8  C5  UNK     1      11.297   8.065  26.417  1.00  0.00     0.075 C 
ATOM      9  C7  UNK     1      12.390   7.308  26.562  1.00  0.00     0.033 C 
ENDROOT
BRANCH   5  10
ATOM     10  C6  UNK     1      11.405  10.013  27.924  1.00  0.00     0.165 C 
ATOM     11  O4  UNK     1      12.334  10.667  28.374  1.00  0.00    -0.649 OA
BRANCH  10  12
ATOM     12  O3  UNK     1      10.348   9.584  28.656  1.00  0.00    -0.775 OA
ATOM     13  H8  UNK     1       9.763   8.988  28.141  1.00  0.00     0.167 HD
ENDBRANCH  10  12
ENDBRANCH   5  10
BRANCH   9  14
ATOM     14  C8  UNK     1      12.390   5.817  26.474  1.00  0.00     0.194 C 
BRANCH  14  15
ATOM     15  O5  UNK     1      12.219   5.283  27.780  1.00  0.00    -0.397 OA
ATOM     16  H9  UNK     1      11.864   4.381  27.689  1.00  0.00     0.209 HD
ENDBRANCH  14  15
ENDBRANCH   9  14
TORSDOF 4
ENDMDL
MODEL 4
REMARK VINA RESULT:    -3.833      1.206      1.266
REMARK INTER + INTRA:          -6.509
REMARK INTER:                  -5.026
REMARK INTRA:                  -1.483
REMARK CONF_INDEPENDENT:        1.193
REMARK UNBOUND:                -1.483
REMARK  4 active torsions:
REMARK  status: ('A' for Active; 'I' for Inactive)
REMARK    1  A    between atoms: O3_3  and  C6_12 
REMARK    2  A    between atoms: O5_5  and  C8_14 
REMARK    3  A    between atoms: C2_8  and  C6_12 
REMARK    4  A    between atoms: C7_13  and  C8_14 
ROOT
ATOM      1  O1  UNK     1      10.699  10.747  28.352  1.00  0.00    -0.332 OA
ATOM      2  O2  UNK     1      13.230  12.174  25.361  1.00  0.00    -0.279 OA
ATOM      3  N1  UNK     1      12.737  10.708  27.143  1.00  0.00    -0.204 NA
ATOM      4  C1  UNK     1      12.045  11.279  28.302  1.00  0.00     0.219 A 
ATOM      5  C2  UNK     1      12.008   9.575  26.636  1.00  0.00     0.222 C 
ATOM      6  C3  UNK     1      12.286  12.665  27.681  1.00  0.00     0.145 A 
ATOM      7  C4  UNK     1      12.879  11.897  26.486  1.00  0.00     0.206 A 
ATOM      8  C5  UNK     1      10.707   9.715  27.394  1.00  0.00     0.075 C 
ATOM      9  C7  UNK     1       9.610   8.984  27.170  1.00  0.00     0.033 C 
ENDROOT
BRANCH   5  10
ATOM     10  C6  UNK     1      12.728   8.341  27.070  1.00  0.00     0.165 C 
ATOM     11  O4  UNK     1      12.217   7.237  27.194  1.00  0.00    -0.649 OA
BRANCH  10  12
ATOM     12  O3  UNK     1      14.034   8.609  27.312  1.00  0.00    -0.775 OA
ATOM     13  H8  UNK     1      14.261   9.541  27.105  1.00  0.00     0.167 HD
ENDBRANCH  10  12
ENDBRANCH   5  10
BRANCH   9  14
ATOM     14  C8  UNK     1       8.335   9.139  27.931  1.00  0.00     0.194 C 
BRANCH  14  15
ATOM     15  O5  UNK     1       8.609   8.981  29.316  1.00  0.00    -0.397 OA
ATOM     16  H9  UNK     1       9.533   9.247  29.470  1.00  0.00     0.209 HD
ENDBRANCH  14  15
ENDBRANCH   9  14
TORSDOF 4
ENDMDL
MODEL 5
REMARK VINA RESULT:    -3.588      1.938      4.163
REMARK INTER + INTRA:          -6.277
REMARK INTER:                  -4.781
REMARK INTRA:                  -1.496
REMARK CONF_INDEPENDENT:        1.193
REMARK UNBOUND:                -1.496
REMARK  4 active torsions:
REMARK  status: ('A' for Active; 'I' for Inactive)
REMARK    1  A    between atoms: O3_3  and  C6_12 
REMARK    2  A    between atoms: O5_5  and  C8_14 
REMARK    3  A    between atoms: C2_8  and  C6_12 
REMARK    4  A    between atoms: C7_13  and  C8_14 
ROOT
ATOM      1  O1  UNK     1      10.432   9.634  25.041  1.00  0.00    -0.332 OA
ATOM      2  O2  UNK     1       9.532   9.334  29.102  1.00  0.00    -0.279 OA
ATOM      3  N1  UNK     1      10.615   8.568  27.150  1.00  0.00    -0.204 NA
ATOM      4  C1  UNK     1       9.851   8.623  25.901  1.00  0.00     0.219 A 
ATOM      5  C2  UNK     1      11.867   9.263  27.000  1.00  0.00     0.222 C 
ATOM      6  C3  UNK     1       8.615   8.973  26.748  1.00  0.00     0.145 A 
ATOM      7  C4  UNK     1       9.585   8.988  27.944  1.00  0.00     0.206 A 
ATOM      8  C5  UNK     1      11.640   9.969  25.683  1.00  0.00     0.075 C 
ATOM      9  C7  UNK     1      12.461  10.884  25.156  1.00  0.00     0.033 C 
ENDROOT
BRANCH   5  10
ATOM     10  C6  UNK     1      12.941   8.236  26.858  1.00  0.00     0.165 C 
ATOM     11  O4  UNK     1      14.136   8.477  26.769  1.00  0.00    -0.649 OA
BRANCH  10  12
ATOM     12  O3  UNK     1      12.411   6.988  26.840  1.00  0.00    -0.775 OA
ATOM     13  H8  UNK     1      11.597   6.944  26.294  1.00  0.00     0.167 HD
ENDBRANCH  10  12
ENDBRANCH   5  10
BRANCH   9  14
ATOM     14  C8  UNK     1      12.218  11.569  23.852  1.00  0.00     0.194 C 
BRANCH  14  15
ATOM     15  O5  UNK     1      10.922  12.152  23.876  1.00  0.00    -0.397 OA
ATOM     16  H9  UNK     1      10.388  11.662  24.527  1.00  0.00     0.209 HD
ENDBRANCH  14  15
ENDBRANCH   9  14
TORSDOF 4
ENDMDL
MODEL 6
REMARK VINA RESULT:    -3.443      2.248      2.492
REMARK INTER + INTRA:          -6.217
REMARK INTER:                  -4.636
REMARK INTRA:                  -1.581
REMARK CONF_INDEPENDENT:        1.193
REMARK UNBOUND:                -1.581
REMARK  4 active torsions:
REMARK  status: ('A' for Active; 'I' for Inactive)
REMARK    1  A    between atoms: O3_3  and  C6_12 
REMARK    2  A    between atoms: O5_5  and  C8_14 
REMARK    3  A    between atoms: C2_8  and  C6_12 
REMARK    4  A    between atoms: C7_13  and  C8_14 
ROOT
ATOM      1  O1  UNK     1       9.727  10.725  25.512  1.00  0.00    -0.332 OA
ATOM      2  O2  UNK     1      13.585  10.484  23.948  1.00  0.00    -0.279 OA
ATOM      3  N1  UNK     1      12.076  10.544  25.762  1.00  0.00    -0.204 NA
ATOM      4  C1  UNK     1      10.954  11.480  25.662  1.00  0.00     0.219 A 
ATOM      5  C2  UNK     1      11.594   9.213  26.020  1.00  0.00     0.222 C 
ATOM      6  C3  UNK     1      11.637  12.066  24.415  1.00  0.00     0.145 A 
ATOM      7  C4  UNK     1      12.673  10.941  24.599  1.00  0.00     0.206 A 
ATOM      8  C5  UNK     1      10.115   9.396  25.769  1.00  0.00     0.075 C 
ATOM      9  C7  UNK     1       9.219   8.404  25.726  1.00  0.00     0.033 C 
ENDROOT
BRANCH   5  10
ATOM     10  C6  UNK     1      11.840   8.913  27.462  1.00  0.00     0.165 C 
ATOM     11  O4  UNK     1      12.349   7.888  27.889  1.00  0.00    -0.649 OA
BRANCH  10  12
ATOM     12  O3  UNK     1      11.417   9.937  28.242  1.00  0.00    -0.775 OA
ATOM     13  H8  UNK     1      11.047  10.674  27.711  1.00  0.00     0.167 HD
ENDBRANCH  10  12
ENDBRANCH   5  10
BRANCH   9  14
ATOM     14  C8  UNK     1       7.761   8.607  25.476  1.00  0.00     0.194 C 
BRANCH  14  15
ATOM     15  O5  UNK     1       7.601   9.303  24.248  1.00  0.00    -0.397 OA
ATOM     16  H9  UNK     1       8.224  10.052  24.246  1.00  0.00     0.209 HD
ENDBRANCH  14  15
ENDBRANCH   9  14
TORSDOF 4
ENDMDL
MODEL 7
REMARK VINA RESULT:    -3.391      2.154      3.185
REMARK INTER + INTRA:          -6.133
REMARK INTER:                  -4.584
REMARK INTRA:                  -1.548
REMARK CONF_INDEPENDENT:        1.193
REMARK UNBOUND:                -1.548
REMARK  4 active torsions:
REMARK  status: ('A' for Active; 'I' for Inactive)
REMARK    1  A    between atoms: O3_3  and  C6_12 
REMARK    2  A    between atoms: O5_5  and  C8_14 
REMARK    3  A    between atoms: C2_8  and  C6_12 
REMARK    4  A    between atoms: C7_13  and  C8_14 
ROOT
ATOM      1  O1  UNK     1      12.107  10.772  24.979  1.00  0.00    -0.332 OA
ATOM      2  O2  UNK     1      14.844   7.878  26.212  1.00  0.00    -0.279 OA
ATOM      3  N1  UNK     1      13.271   9.578  26.663  1.00  0.00    -0.204 NA
ATOM      4  C1  UNK     1      13.303  10.759  25.797  1.00  0.00     0.219 A 
ATOM      5  C2  UNK     1      11.950   9.008  26.681  1.00  0.00     0.222 C 
ATOM      6  C3  UNK     1      14.614  10.212  25.208  1.00  0.00     0.145 A 
ATOM      7  C4  UNK     1      14.366   8.984  26.102  1.00  0.00     0.206 A 
ATOM      8  C5  UNK     1      11.303   9.762  25.541  1.00  0.00     0.075 C 
ATOM      9  C7  UNK     1      10.095   9.492  25.036  1.00  0.00     0.033 C 
ENDROOT
BRANCH   5  10
ATOM     10  C6  UNK     1      11.311   9.383  27.977  1.00  0.00     0.165 C 
ATOM     11  O4  UNK     1      10.733   8.609  28.725  1.00  0.00    -0.649 OA
BRANCH  10  12
ATOM     12  O3  UNK     1      11.458  10.709  28.216  1.00  0.00    -0.775 OA
ATOM     13  H8  UNK     1      11.970  11.155  27.509  1.00  0.00     0.167 HD
ENDBRANCH  10  12
ENDBRANCH   5  10
BRANCH   9  14
ATOM     14  C8  UNK     1       9.474  10.250  23.909  1.00  0.00     0.194 C 
BRANCH  14  15
ATOM     15  O5  UNK     1       9.665  11.640  24.134  1.00  0.00    -0.397 OA
ATOM     16  H9  UNK     1      10.611  11.834  24.009  1.00  0.00     0.209 HD
ENDBRANCH  14  15
ENDBRANCH   9  14
TORSDOF 4
ENDMDL
MODEL 8
REMARK VINA RESULT:    -3.252      2.677      3.720
REMARK INTER + INTRA:          -5.986
REMARK INTER:                  -4.445
REMARK INTRA:                  -1.542
REMARK CONF_INDEPENDENT:        1.193
REMARK UNBOUND:                -1.542
REMARK  4 active torsions:
REMARK  status: ('A' for Active; 'I' for Inactive)
REMARK    1  A    between atoms: O3_3  and  C6_12 
REMARK    2  A    between atoms: O5_5  and  C8_14 
REMARK    3  A    between atoms: C2_8  and  C6_12 
REMARK    4  A    between atoms: C7_13  and  C8_14 
ROOT
ATOM      1  O1  UNK     1      11.100  11.958  26.904  1.00  0.00    -0.332 OA
ATOM      2  O2  UNK     1      14.072  13.012  29.632  1.00  0.00    -0.279 OA
ATOM      3  N1  UNK     1      12.597  11.443  28.667  1.00  0.00    -0.204 NA
ATOM      4  C1  UNK     1      11.247  11.912  28.344  1.00  0.00     0.219 A 
ATOM      5  C2  UNK     1      13.216  10.865  27.504  1.00  0.00     0.222 C 
ATOM      6  C3  UNK     1      11.581  13.203  29.111  1.00  0.00     0.145 A 
ATOM      7  C4  UNK     1      12.994  12.609  29.260  1.00  0.00     0.206 A 
ATOM      8  C5  UNK     1      12.249  11.299  26.426  1.00  0.00     0.075 C 
ATOM      9  C7  UNK     1      12.449  11.144  25.113  1.00  0.00     0.033 C 
ENDROOT
BRANCH   5  10
ATOM     10  C6  UNK     1      13.181   9.381  27.662  1.00  0.00     0.165 C 
ATOM     11  O4  UNK     1      14.025   8.609  27.231  1.00  0.00    -0.649 OA
BRANCH  10  12
ATOM     12  O3  UNK     1      12.079   8.999  28.352  1.00  0.00    -0.775 OA
ATOM     13  H8  UNK     1      11.375   9.681  28.326  1.00  0.00     0.167 HD
ENDBRANCH  10  12
ENDBRANCH   5  10
BRANCH   9  14
ATOM     14  C8  UNK     1      11.479  11.580  24.064  1.00  0.00     0.194 C 
BRANCH  14  15
ATOM     15  O5  UNK     1      10.162  11.289  24.512  1.00  0.00    -0.397 OA
ATOM     16  H9  UNK     1      10.038  11.725  25.373  1.00  0.00     0.209 HD
ENDBRANCH  14  15
ENDBRANCH   9  14
TORSDOF 4
ENDMDL
MODEL 9
REMARK VINA RESULT:    -3.005      3.010      5.139
REMARK INTER + INTRA:          -5.739
REMARK INTER:                  -4.198
REMARK INTRA:                  -1.541
REMARK CONF_INDEPENDENT:        1.193
REMARK UNBOUND:                -1.541
REMARK  4 active torsions:
REMARK  status: ('A' for Active; 'I' for Inactive)
REMARK    1  A    between atoms: O3_3  and  C6_12 
REMARK    2  A    between atoms: O5_5  and  C8_14 
REMARK    3  A    between atoms: C2_8  and  C6_12 
REMARK    4  A    between atoms: C7_13  and  C8_14 
ROOT
ATOM      1  O1  UNK     1       9.557   9.065  26.244  1.00  0.00    -0.332 OA
ATOM      2  O2  UNK     1       6.273  10.006  23.851  1.00  0.00    -0.279 OA
ATOM      3  N1  UNK     1       7.232   9.386  25.917  1.00  0.00    -0.204 NA
ATOM      4  C1  UNK     1       8.320   8.406  25.877  1.00  0.00     0.219 A 
ATOM      5  C2  UNK     1       7.653  10.571  26.618  1.00  0.00     0.222 C 
ATOM      6  C3  UNK     1       7.989   8.195  24.390  1.00  0.00     0.145 A 
ATOM      7  C4  UNK     1       6.965   9.330  24.578  1.00  0.00     0.206 A 
ATOM      8  C5  UNK     1       9.141  10.324  26.718  1.00  0.00     0.075 C 
ATOM      9  C7  UNK     1      10.035  11.216  27.158  1.00  0.00     0.033 C 
ENDROOT
BRANCH   5  10
ATOM     10  C6  UNK     1       7.032  10.540  27.975  1.00  0.00     0.165 C 
ATOM     11  O4  UNK     1       6.367  11.442  28.463  1.00  0.00    -0.649 OA
BRANCH  10  12
ATOM     12  O3  UNK     1       7.308   9.370  28.601  1.00  0.00    -0.775 OA
ATOM     13  H8  UNK     1       7.759   8.734  28.007  1.00  0.00     0.167 HD
ENDBRANCH  10  12
ENDBRANCH   5  10
BRANCH   9  14
ATOM     14  C8  UNK     1      11.502  10.951  27.249  1.00  0.00     0.194 C 
BRANCH  14  15
ATOM     15  O5  UNK     1      11.705   9.761  28.000  1.00  0.00    -0.397 OA
ATOM     16  H9  UNK     1      11.292   9.027  27.512  1.00  0.00     0.209 HD
ENDBRANCH  14  15
ENDBRANCH   9  14
TORSDOF 4
ENDMDL
