REMARK  4 active torsions:
REMARK  status: ('A' for Active; 'I' for Inactive)
REMARK    1  A    between atoms: O3_3  and  C6_12 
REMARK    2  A    between atoms: O5_5  and  C8_14 
REMARK    3  A    between atoms: C2_8  and  C6_12 
REMARK    4  A    between atoms: C7_13  and  C8_14 
ROOT
ATOM      1  O1  UNK     1      -0.598   1.057   0.989  1.00  0.00    -0.332 OA
ATOM      2  O2  UNK     1       2.728   1.149  -1.525  1.00  0.00    -0.279 OA
ATOM      3  N1  UNK     1       1.423   0.137   0.161  1.00  0.00    -0.204 NA
ATOM      4  C1  UNK     1       0.839   1.023   1.171  1.00  0.00     0.219 A 
ATOM      5  C2  UNK     1       0.397  -0.665  -0.452  1.00  0.00     0.222 C 
ATOM      6  C3  UNK     1       1.701   2.154   0.584  1.00  0.00     0.145 A 
ATOM      7  C4  UNK     1       2.124   1.121  -0.477  1.00  0.00     0.206 A 
ATOM      8  C5  UNK     1      -0.845   0.027   0.061  1.00  0.00     0.075 C 
ATOM      9  C7  UNK     1      -2.091  -0.241  -0.344  1.00  0.00     0.033 C 
ENDROOT
BRANCH   5  10
ATOM     10  C6  UNK     1       0.495  -2.041   0.119  1.00  0.00     0.165 C 
ATOM     11  O4  UNK     1       0.436  -2.313   1.309  1.00  0.00    -0.649 OA
BRANCH  10  12
ATOM     12  O3  UNK     1       0.661  -2.957  -0.866  1.00  0.00    -0.775 OA
ATOM     13  H8  UNK     1       0.729  -3.869  -0.511  1.00  0.00     0.167 HD
ENDBRANCH  10  12
ENDBRANCH   5  10
BRANCH   9  14
ATOM     14  C8  UNK     1      -3.305   0.455   0.177  1.00  0.00     0.194 C 
BRANCH  14  15
ATOM     15  O5  UNK     1      -3.965   1.094  -0.907  1.00  0.00    -0.397 OA
ATOM     16  H9  UNK     1      -4.243   0.404  -1.535  1.00  0.00     0.209 HD
ENDBRANCH  14  15
ENDBRANCH   9  14
TORSDOF 4
