MODEL 1
REMARK VINA RESULT:    -4.926      0.000      0.000
REMARK INTER + INTRA:          -6.112
REMARK INTER:                  -5.522
REMARK INTRA:                  -0.589
REMARK CONF_INDEPENDENT:        0.597
REMARK UNBOUND:                -0.589
REMARK  2 active torsions:
REMARK  status: ('A' for Active; 'I' for Inactive)
REMARK    1  A    between atoms: C_1725  and  CA_1727 
REMARK    2  A    between atoms: CAJ_1733  and  CAD_1734 
ROOT
HETATM    1  N   3R9 A 304      11.095   9.517  25.639  1.00 49.44     0.164 N 
HETATM    2  CA  3R9 A 304      11.606  10.051  26.946  1.00 47.52     0.317 C 
HETATM    3  CB  3R9 A 304      12.227  11.478  26.787  1.00 48.87     0.104 C 
HETATM    4  SAH 3R9 A 304      12.225  11.794  25.022  1.00 54.23    -0.105 SA
HETATM    5  CAM 3R9 A 304      11.148  10.484  24.471  1.00 50.04     0.279 C 
HETATM    6  CAF 3R9 A 304       9.798  11.091  24.209  1.00 51.98     0.104 C 
HETATM    7  SAG 3R9 A 304       9.030  10.704  25.789  1.00 59.06    -0.105 SA
HETATM    8  CAJ 3R9 A 304       9.711   9.071  25.878  1.00 46.79     0.280 C 
ENDROOT
BRANCH   2   9
HETATM    9  C   3R9 A 304      12.581   9.006  27.623  1.00 41.68     0.219 C 
HETATM   10  OXT 3R9 A 304      13.625   8.609  27.016  1.00 33.07    -0.646 OA
HETATM   11  O   3R9 A 304      12.220   8.603  28.727  1.00 37.98    -0.646 OA
ENDBRANCH   2   9
BRANCH   8  12
HETATM   12  CAD 3R9 A 304       9.220   8.155  24.804  1.00 37.73     0.113 C 
HETATM   13  SAC 3R9 A 304       7.436   8.499  24.602  1.00 30.82    -0.079 SA
ENDBRANCH   8  12
TORSDOF 2
ENDMDL
MODEL 2
REMARK VINA RESULT:    -4.914      1.728      2.000
REMARK INTER + INTRA:          -6.088
REMARK INTER:                  -5.511
REMARK INTRA:                  -0.577
REMARK CONF_INDEPENDENT:        0.597
REMARK UNBOUND:                -0.577
REMARK  2 active torsions:
REMARK  status: ('A' for Active; 'I' for Inactive)
REMARK    1  A    between atoms: C_1725  and  CA_1727 
REMARK    2  A    between atoms: CAJ_1733  and  CAD_1734 
ROOT
HETATM    1  N   3R9 A 304      10.568   8.640  25.662  1.00 49.44     0.164 N 
HETATM    2  CA  3R9 A 304      11.055   8.192  27.010  1.00 47.52     0.317 C 
HETATM    3  CB  3R9 A 304      11.300   9.401  27.970  1.00 48.87     0.104 C 
HETATM    4  SAH 3R9 A 304      11.059  10.860  26.955  1.00 54.23    -0.105 SA
HETATM    5  CAM 3R9 A 304      10.281  10.125  25.531  1.00 50.04     0.279 C 
HETATM    6  CAF 3R9 A 304       8.806  10.402  25.629  1.00 51.98     0.104 C 
HETATM    7  SAG 3R9 A 304       8.302   8.847  26.382  1.00 59.06    -0.105 SA
HETATM    8  CAJ 3R9 A 304       9.358   7.852  25.366  1.00 46.79     0.280 C 
ENDROOT
BRANCH   2   9
HETATM    9  C   3R9 A 304      12.309   7.241  26.852  1.00 41.68     0.219 C 
HETATM   10  OXT 3R9 A 304      12.218   6.002  27.123  1.00 33.07    -0.646 OA
HETATM   11  O   3R9 A 304      13.342   7.804  26.497  1.00 37.98    -0.646 OA
ENDBRANCH   2   9
BRANCH   8  12
HETATM   12  CAD 3R9 A 304       9.003   7.886  23.914  1.00 37.73     0.113 C 
HETATM   13  SAC 3R9 A 304       7.356   7.109  23.763  1.00 30.82    -0.079 SA
ENDBRANCH   8  12
TORSDOF 2
ENDMDL
MODEL 3
REMARK VINA RESULT:    -4.825      1.965      3.363
REMARK INTER + INTRA:          -6.076
REMARK INTER:                  -5.422
REMARK INTRA:                  -0.654
REMARK CONF_INDEPENDENT:        0.597
REMARK UNBOUND:                -0.654
REMARK  2 active torsions:
REMARK  status: ('A' for Active; 'I' for Inactive)
REMARK    1  A    between atoms: C_1725  and  CA_1727 
REMARK    2  A    between atoms: CAJ_1733  and  CAD_1734 
ROOT
HETATM    1  N   3R9 A 304       9.226  10.335  25.960  1.00 49.44     0.164 N 
HETATM    2  CA  3R9 A 304       9.399   9.425  27.142  1.00 47.52     0.317 C 
HETATM    3  CB  3R9 A 304       8.090   9.319  27.990  1.00 48.87     0.104 C 
HETATM    4  SAH 3R9 A 304       6.966  10.512  27.264  1.00 54.23    -0.105 SA
HETATM    5  CAM 3R9 A 304       7.819  10.857  25.738  1.00 50.04     0.279 C 
HETATM    6  CAF 3R9 A 304       7.122  10.090  24.648  1.00 51.98     0.104 C 
HETATM    7  SAG 3R9 A 304       8.199   8.649  24.621  1.00 59.06    -0.105 SA
HETATM    8  CAJ 3R9 A 304       9.692   9.587  24.779  1.00 46.79     0.280 C 
ENDROOT
BRANCH   2   9
HETATM    9  C   3R9 A 304      10.669   9.852  27.983  1.00 41.68     0.219 C 
HETATM   10  OXT 3R9 A 304      11.521   8.984  28.352  1.00 33.07    -0.646 OA
HETATM   11  O   3R9 A 304      10.723  11.047  28.265  1.00 37.98    -0.646 OA
ENDBRANCH   2   9
BRANCH   8  12
HETATM   12  CAD 3R9 A 304       9.966  10.484  23.615  1.00 37.73     0.113 C 
HETATM   13  SAC 3R9 A 304      11.063  11.811  24.227  1.00 30.82    -0.079 SA
ENDBRANCH   8  12
TORSDOF 2
ENDMDL
MODEL 4
REMARK VINA RESULT:    -4.557      1.555      3.178
REMARK INTER + INTRA:          -5.794
REMARK INTER:                  -5.153
REMARK INTRA:                  -0.641
REMARK CONF_INDEPENDENT:        0.597
REMARK UNBOUND:                -0.641
REMARK  2 active torsions:
REMARK  status: ('A' for Active; 'I' for Inactive)
REMARK    1  A    between atoms: C_1725  and  CA_1727 
REMARK    2  A    between atoms: CAJ_1733  and  CAD_1734 
ROOT
HETATM    1  N   3R9 A 304      11.000  10.669  25.943  1.00 49.44     0.164 N 
HETATM    2  CA  3R9 A 304      11.168   9.220  26.298  1.00 47.52     0.317 C 
HETATM    3  CB  3R9 A 304       9.852   8.607  26.878  1.00 48.87     0.104 C 
HETATM    4  SAH 3R9 A 304       8.726   9.993  27.045  1.00 54.23    -0.105 SA
HETATM    5  CAM 3R9 A 304       9.591  11.217  26.081  1.00 50.04     0.279 C 
HETATM    6  CAF 3R9 A 304       8.910  11.300  24.743  1.00 51.98     0.104 C 
HETATM    7  SAG 3R9 A 304       9.996  10.193  23.832  1.00 59.06    -0.105 SA
HETATM    8  CAJ 3R9 A 304      11.482  10.825  24.560  1.00 46.79     0.280 C 
ENDROOT
BRANCH   2   9
HETATM    9  C   3R9 A 304      12.427   9.026  27.236  1.00 41.68     0.219 C 
HETATM   10  OXT 3R9 A 304      13.423   8.339  26.845  1.00 33.07    -0.646 OA
HETATM   11  O   3R9 A 304      12.330   9.547  28.344  1.00 37.98    -0.646 OA
ENDBRANCH   2   9
BRANCH   8  12
HETATM   12  CAD 3R9 A 304      11.761  12.252  24.216  1.00 37.73     0.113 C 
HETATM   13  SAC 3R9 A 304      12.990  12.849  25.430  1.00 30.82    -0.079 SA
ENDBRANCH   8  12
TORSDOF 2
ENDMDL
MODEL 5
REMARK VINA RESULT:    -4.485      4.591      5.729
REMARK INTER + INTRA:          -5.750
REMARK INTER:                  -5.081
REMARK INTRA:                  -0.669
REMARK CONF_INDEPENDENT:        0.597
REMARK UNBOUND:                -0.669
REMARK  2 active torsions:
REMARK  status: ('A' for Active; 'I' for Inactive)
REMARK    1  A    between atoms: C_1725  and  CA_1727 
REMARK    2  A    between atoms: CAJ_1733  and  CAD_1734 
ROOT
HETATM    1  N   3R9 A 304       7.066   9.888  25.524  1.00 49.44     0.164 N 
HETATM    2  CA  3R9 A 304       6.217  11.126  25.476  1.00 47.52     0.317 C 
HETATM    3  CB  3R9 A 304       5.944  11.699  26.905  1.00 48.87     0.104 C 
HETATM    4  SAH 3R9 A 304       6.632  10.487  28.033  1.00 54.23    -0.105 SA
HETATM    5  CAM 3R9 A 304       7.598   9.513  26.896  1.00 50.04     0.279 C 
HETATM    6  CAF 3R9 A 304       9.034   9.930  27.051  1.00 51.98     0.104 C 
HETATM    7  SAG 3R9 A 304       9.107  11.111  25.696  1.00 59.06    -0.105 SA
HETATM    8  CAJ 3R9 A 304       8.176  10.100  24.580  1.00 46.79     0.280 C 
ENDROOT
BRANCH   2   9
HETATM    9  C   3R9 A 304       4.904  10.859  24.636  1.00 41.68     0.219 C 
HETATM   10  OXT 3R9 A 304       3.758  10.994  25.169  1.00 33.07    -0.646 OA
HETATM   11  O   3R9 A 304       5.097  10.485  23.481  1.00 37.98    -0.646 OA
ENDBRANCH   2   9
BRANCH   8  12
HETATM   12  CAD 3R9 A 304       8.858   8.821  24.215  1.00 37.73     0.113 C 
HETATM   13  SAC 3R9 A 304       7.567   7.527  24.202  1.00 30.82    -0.079 SA
ENDBRANCH   8  12
TORSDOF 2
ENDMDL
MODEL 6
REMARK VINA RESULT:    -4.456      1.569      1.768
REMARK INTER + INTRA:          -5.707
REMARK INTER:                  -5.053
REMARK INTRA:                  -0.654
REMARK CONF_INDEPENDENT:        0.597
REMARK UNBOUND:                -0.654
REMARK  2 active torsions:
REMARK  status: ('A' for Active; 'I' for Inactive)
REMARK    1  A    between atoms: C_1725  and  CA_1727 
REMARK    2  A    between atoms: CAJ_1733  and  CAD_1734 
ROOT
HETATM    1  N   3R9 A 304       9.569   9.572  25.221  1.00 49.44     0.164 N 
HETATM    2  CA  3R9 A 304      10.350  10.289  26.284  1.00 47.52     0.317 C 
HETATM    3  CB  3R9 A 304      11.245  11.421  25.684  1.00 48.87     0.104 C 
HETATM    4  SAH 3R9 A 304      11.085  11.249  23.906  1.00 54.23    -0.105 SA
HETATM    5  CAM 3R9 A 304       9.684  10.151  23.823  1.00 50.04     0.279 C 
HETATM    6  CAF 3R9 A 304       8.479  10.982  23.480  1.00 51.98     0.104 C 
HETATM    7  SAG 3R9 A 304       7.855  11.230  25.149  1.00 59.06    -0.105 SA
HETATM    8  CAJ 3R9 A 304       8.163   9.564  25.663  1.00 46.79     0.280 C 
ENDROOT
BRANCH   2   9
HETATM    9  C   3R9 A 304      11.148   9.251  27.173  1.00 41.68     0.219 C 
HETATM   10  OXT 3R9 A 304      11.516   9.559  28.350  1.00 33.07    -0.646 OA
HETATM   11  O   3R9 A 304      11.401   8.184  26.618  1.00 37.98    -0.646 OA
ENDBRANCH   2   9
BRANCH   8  12
HETATM   12  CAD 3R9 A 304       7.347   8.548  24.930  1.00 37.73     0.113 C 
HETATM   13  SAC 3R9 A 304       8.455   7.133  24.597  1.00 30.82    -0.079 SA
ENDBRANCH   8  12
TORSDOF 2
ENDMDL
MODEL 7
REMARK VINA RESULT:    -4.299      1.641      3.021
REMARK INTER + INTRA:          -5.534
REMARK INTER:                  -4.895
REMARK INTRA:                  -0.639
REMARK CONF_INDEPENDENT:        0.597
REMARK UNBOUND:                -0.639
REMARK  2 active torsions:
REMARK  status: ('A' for Active; 'I' for Inactive)
REMARK    1  A    between atoms: C_1725  and  CA_1727 
REMARK    2  A    between atoms: CAJ_1733  and  CAD_1734 
ROOT
HETATM    1  N   3R9 A 304      11.006   9.998  26.223  1.00 49.44     0.164 N 
HETATM    2  CA  3R9 A 304      11.896   8.812  26.459  1.00 47.52     0.317 C 
HETATM    3  CB  3R9 A 304      11.466   8.007  27.729  1.00 48.87     0.104 C 
HETATM    4  SAH 3R9 A 304      10.166   8.984  28.483  1.00 54.23    -0.105 SA
HETATM    5  CAM 3R9 A 304       9.811  10.113  27.151  1.00 50.04     0.279 C 
HETATM    6  CAF 3R9 A 304       8.554   9.635  26.477  1.00 51.98     0.104 C 
HETATM    7  SAG 3R9 A 304       9.318   8.707  25.139  1.00 59.06    -0.105 SA
HETATM    8  CAJ 3R9 A 304      10.565   9.923  24.819  1.00 46.79     0.280 C 
ENDROOT
BRANCH   2   9
HETATM    9  C   3R9 A 304      13.414   9.258  26.472  1.00 41.68     0.219 C 
HETATM   10  OXT 3R9 A 304      13.818  10.193  25.711  1.00 33.07    -0.646 OA
HETATM   11  O   3R9 A 304      14.135   8.609  27.226  1.00 37.98    -0.646 OA
ENDBRANCH   2   9
BRANCH   8  12
HETATM   12  CAD 3R9 A 304      10.023  11.226  24.328  1.00 37.73     0.113 C 
HETATM   13  SAC 3R9 A 304      11.466  12.297  23.993  1.00 30.82    -0.079 SA
ENDBRANCH   8  12
TORSDOF 2
ENDMDL
MODEL 8
REMARK VINA RESULT:    -4.251      2.368      3.333
REMARK INTER + INTRA:          -5.510
REMARK INTER:                  -4.847
REMARK INTRA:                  -0.663
REMARK CONF_INDEPENDENT:        0.597
REMARK UNBOUND:                -0.663
REMARK  2 active torsions:
REMARK  status: ('A' for Active; 'I' for Inactive)
REMARK    1  A    between atoms: C_1725  and  CA_1727 
REMARK    2  A    between atoms: CAJ_1733  and  CAD_1734 
ROOT
HETATM    1  N   3R9 A 304       8.551   9.741  26.637  1.00 49.44     0.164 N 
HETATM    2  CA  3R9 A 304      10.027   9.927  26.434  1.00 47.52     0.317 C 
HETATM    3  CB  3R9 A 304      10.623   8.843  25.477  1.00 48.87     0.104 C 
HETATM    4  SAH 3R9 A 304       9.276   7.699  25.171  1.00 54.23    -0.105 SA
HETATM    5  CAM 3R9 A 304       7.907   8.654  25.796  1.00 50.04     0.279 C 
HETATM    6  CAF 3R9 A 304       7.189   9.241  24.612  1.00 51.98     0.104 C 
HETATM    7  SAG 3R9 A 304       7.977  10.858  24.609  1.00 59.06    -0.105 SA
HETATM    8  CAJ 3R9 A 304       7.919  11.044  26.369  1.00 46.79     0.280 C 
ENDROOT
BRANCH   2   9
HETATM    9  C   3R9 A 304      10.766  10.019  27.830  1.00 41.68     0.219 C 
HETATM   10  OXT 3R9 A 304      11.290   8.985  28.352  1.00 33.07    -0.646 OA
HETATM   11  O   3R9 A 304      10.745  11.131  28.352  1.00 37.98    -0.646 OA
ENDBRANCH   2   9
BRANCH   8  12
HETATM   12  CAD 3R9 A 304       6.532  11.124  26.921  1.00 37.73     0.113 C 
HETATM   13  SAC 3R9 A 304       6.606  10.441  28.614  1.00 30.82    -0.079 SA
ENDBRANCH   8  12
TORSDOF 2
ENDMDL
MODEL 9
REMARK VINA RESULT:    -4.078      3.974      4.917
REMARK INTER + INTRA:          -5.314
REMARK INTER:                  -4.674
REMARK INTRA:                  -0.640
REMARK CONF_INDEPENDENT:        0.597
REMARK UNBOUND:                -0.640
REMARK  2 active torsions:
REMARK  status: ('A' for Active; 'I' for Inactive)
REMARK    1  A    between atoms: C_1725  and  CA_1727 
REMARK    2  A    between atoms: CAJ_1733  and  CAD_1734 
ROOT
HETATM    1  N   3R9 A 304       8.237  10.496  25.710  1.00 49.44     0.164 N 
HETATM    2  CA  3R9 A 304       7.914  10.165  24.281  1.00 47.52     0.317 C 
HETATM    3  CB  3R9 A 304       9.110  10.484  23.326  1.00 48.87     0.104 C 
HETATM    4  SAH 3R9 A 304      10.326  11.305  24.358  1.00 54.23    -0.105 SA
HETATM    5  CAM 3R9 A 304       9.666  10.934  25.972  1.00 50.04     0.279 C 
HETATM    6  CAF 3R9 A 304      10.481   9.808  26.545  1.00 51.98     0.104 C 
HETATM    7  SAG 3R9 A 304       9.402   8.446  26.078  1.00 59.06    -0.105 SA
HETATM    8  CAJ 3R9 A 304       7.910   9.299  26.504  1.00 46.79     0.280 C 
ENDROOT
BRANCH   2   9
HETATM    9  C   3R9 A 304       6.556  10.854  23.851  1.00 41.68     0.219 C 
HETATM   10  OXT 3R9 A 304       5.470  10.195  23.851  1.00 33.07    -0.646 OA
HETATM   11  O   3R9 A 304       6.662  12.026  23.494  1.00 37.98    -0.646 OA
ENDBRANCH   2   9
BRANCH   8  12
HETATM   12  CAD 3R9 A 304       7.787   9.606  27.962  1.00 37.73     0.113 C 
HETATM   13  SAC 3R9 A 304       6.564  10.956  28.109  1.00 30.82    -0.079 SA
ENDBRANCH   8  12
TORSDOF 2
ENDMDL
