REMARK  2 active torsions:
REMARK  status: ('A' for Active; 'I' for Inactive)
REMARK    1  A    between atoms: C_1725  and  CA_1727 
REMARK    2  A    between atoms: CAJ_1733  and  CAD_1734 
ROOT
HETATM    1  N   3R9 A 304      10.102   9.470  25.384  1.00 49.44     0.164 N 
HETATM    2  CA  3R9 A 304      11.108   9.515  26.498  1.00 47.52     0.317 C 
HETATM    3  CB  3R9 A 304      12.292  10.483  26.173  1.00 48.87     0.104 C 
HETATM    4  SAH 3R9 A 304      12.021  10.999  24.477  1.00 54.23    -0.105 SA
HETATM    5  CAM 3R9 A 304      10.343  10.445  24.246  1.00 50.04     0.279 C 
HETATM    6  CAF 3R9 A 304       9.450  11.649  24.367  1.00 51.98     0.104 C 
HETATM    7  SAG 3R9 A 304       8.998  11.461  26.098  1.00 59.06    -0.105 SA
HETATM    8  CAJ 3R9 A 304       8.783   9.706  25.996  1.00 46.79     0.280 C 
ENDROOT
BRANCH   2   9
HETATM    9  C   3R9 A 304      11.570   8.051  26.880  1.00 41.68     0.219 C 
HETATM   10  OXT 3R9 A 304      11.297   7.069  26.120  1.00 33.07    -0.646 OA
HETATM   11  O   3R9 A 304      12.155   7.959  27.957  1.00 37.98    -0.646 OA
ENDBRANCH   2   9
BRANCH   8  12
HETATM   12  CAD 3R9 A 304       7.662   9.288  25.100  1.00 37.73     0.113 C 
HETATM   13  SAC 3R9 A 304       8.146   7.681  24.376  1.00 30.82    -0.079 SA
ENDBRANCH   8  12
TORSDOF 2
