MODEL 1
REMARK VINA RESULT:    -5.190      0.000      0.000
REMARK INTER + INTRA:          -6.441
REMARK INTER:                  -5.786
REMARK INTRA:                  -0.654
REMARK CONF_INDEPENDENT:        0.597
REMARK UNBOUND:                -0.654
REMARK  2 active torsions:
REMARK  status: ('A' for Active; 'I' for Inactive)
REMARK    1  A    between atoms: C_1725  and  CA_1727 
REMARK    2  A    between atoms: CAJ_1733  and  CAD_1734 
ROOT
HETATM    1  N   3R9 A 304       9.226  10.318  25.955  1.00 49.44     0.164 N 
HETATM    2  CA  3R9 A 304       9.405   9.404  27.133  1.00 47.52     0.317 C 
HETATM    3  CB  3R9 A 304       8.096   9.285  27.980  1.00 48.87     0.104 C 
HETATM    4  SAH 3R9 A 304       6.963  10.473  27.258  1.00 54.23    -0.105 SA
HETATM    5  CAM 3R9 A 304       7.815  10.831  25.734  1.00 50.04     0.279 C 
HETATM    6  CAF 3R9 A 304       7.125  10.063  24.641  1.00 51.98     0.104 C 
HETATM    7  SAG 3R9 A 304       8.212   8.630  24.608  1.00 59.06    -0.105 SA
HETATM    8  CAJ 3R9 A 304       9.699   9.579  24.772  1.00 46.79     0.280 C 
ENDROOT
BRANCH   2   9
HETATM    9  C   3R9 A 304      10.671   9.837  27.977  1.00 41.68     0.219 C 
HETATM   10  OXT 3R9 A 304      11.524   8.972  28.352  1.00 33.07    -0.646 OA
HETATM   11  O   3R9 A 304      10.720  11.033  28.256  1.00 37.98    -0.646 OA
ENDBRANCH   2   9
BRANCH   8  12
HETATM   12  CAD 3R9 A 304       9.967  10.483  23.612  1.00 37.73     0.113 C 
HETATM   13  SAC 3R9 A 304      11.079  11.798  24.223  1.00 30.82    -0.079 SA
ENDBRANCH   8  12
TORSDOF 2
ENDMDL
MODEL 2
REMARK VINA RESULT:    -5.165      1.842      3.366
REMARK INTER + INTRA:          -6.336
REMARK INTER:                  -5.762
REMARK INTRA:                  -0.574
REMARK CONF_INDEPENDENT:        0.597
REMARK UNBOUND:                -0.574
REMARK  2 active torsions:
REMARK  status: ('A' for Active; 'I' for Inactive)
REMARK    1  A    between atoms: C_1725  and  CA_1727 
REMARK    2  A    between atoms: CAJ_1733  and  CAD_1734 
ROOT
HETATM    1  N   3R9 A 304      10.945   9.641  25.716  1.00 49.44     0.164 N 
HETATM    2  CA  3R9 A 304      11.579  10.182  26.965  1.00 47.52     0.317 C 
HETATM    3  CB  3R9 A 304      12.423  11.466  26.679  1.00 48.87     0.104 C 
HETATM    4  SAH 3R9 A 304      12.418  11.640  24.894  1.00 54.23    -0.105 SA
HETATM    5  CAM 3R9 A 304      11.122  10.492  24.472  1.00 50.04     0.279 C 
HETATM    6  CAF 3R9 A 304       9.883  11.295  24.185  1.00 51.98     0.104 C 
HETATM    7  SAG 3R9 A 304       9.113  11.166  25.806  1.00 59.06    -0.105 SA
HETATM    8  CAJ 3R9 A 304       9.515   9.454  26.015  1.00 46.79     0.280 C 
ENDROOT
BRANCH   2   9
HETATM    9  C   3R9 A 304      12.387   9.042  27.708  1.00 41.68     0.219 C 
HETATM   10  OXT 3R9 A 304      13.482   8.609  27.228  1.00 33.07    -0.646 OA
HETATM   11  O   3R9 A 304      11.852   8.611  28.727  1.00 37.98    -0.646 OA
ENDBRANCH   2   9
BRANCH   8  12
HETATM   12  CAD 3R9 A 304       8.844   8.553  25.029  1.00 37.73     0.113 C 
HETATM   13  SAC 3R9 A 304       7.233   9.321  24.635  1.00 30.82    -0.079 SA
ENDBRANCH   8  12
TORSDOF 2
ENDMDL
MODEL 3
REMARK VINA RESULT:    -5.002      2.451      3.391
REMARK INTER + INTRA:          -6.166
REMARK INTER:                  -5.598
REMARK INTRA:                  -0.568
REMARK CONF_INDEPENDENT:        0.597
REMARK UNBOUND:                -0.568
REMARK  2 active torsions:
REMARK  status: ('A' for Active; 'I' for Inactive)
REMARK    1  A    between atoms: C_1725  and  CA_1727 
REMARK    2  A    between atoms: CAJ_1733  and  CAD_1734 
ROOT
HETATM    1  N   3R9 A 304      10.599   8.863  26.031  1.00 49.44     0.164 N 
HETATM    2  CA  3R9 A 304      11.135   8.167  27.248  1.00 47.52     0.317 C 
HETATM    3  CB  3R9 A 304      11.627   9.184  28.329  1.00 48.87     0.104 C 
HETATM    4  SAH 3R9 A 304      11.502  10.793  27.548  1.00 54.23    -0.105 SA
HETATM    5  CAM 3R9 A 304      10.509  10.375  26.128  1.00 50.04     0.279 C 
HETATM    6  CAF 3R9 A 304       9.101  10.815  26.418  1.00 51.98     0.104 C 
HETATM    7  SAG 3R9 A 304       8.455   9.243  27.007  1.00 59.06    -0.105 SA
HETATM    8  CAJ 3R9 A 304       9.271   8.283  25.763  1.00 46.79     0.280 C 
ENDROOT
BRANCH   2   9
HETATM    9  C   3R9 A 304      12.228   7.100  26.834  1.00 41.68     0.219 C 
HETATM   10  OXT 3R9 A 304      11.977   5.856  26.911  1.00 33.07    -0.646 OA
HETATM   11  O   3R9 A 304      13.307   7.575  26.488  1.00 37.98    -0.646 OA
ENDBRANCH   2   9
BRANCH   8  12
HETATM   12  CAD 3R9 A 304       8.799   8.570  24.374  1.00 37.73     0.113 C 
HETATM   13  SAC 3R9 A 304       7.825   7.117  23.844  1.00 30.82    -0.079 SA
ENDBRANCH   8  12
TORSDOF 2
ENDMDL
MODEL 4
REMARK VINA RESULT:    -4.857      1.905      2.157
REMARK INTER + INTRA:          -6.092
REMARK INTER:                  -5.453
REMARK INTRA:                  -0.639
REMARK CONF_INDEPENDENT:        0.597
REMARK UNBOUND:                -0.639
REMARK  2 active torsions:
REMARK  status: ('A' for Active; 'I' for Inactive)
REMARK    1  A    between atoms: C_1725  and  CA_1727 
REMARK    2  A    between atoms: CAJ_1733  and  CAD_1734 
ROOT
HETATM    1  N   3R9 A 304      10.961  10.676  25.950  1.00 49.44     0.164 N 
HETATM    2  CA  3R9 A 304      11.144   9.231  26.317  1.00 47.52     0.317 C 
HETATM    3  CB  3R9 A 304       9.832   8.608  26.898  1.00 48.87     0.104 C 
HETATM    4  SAH 3R9 A 304       8.691   9.983  27.050  1.00 54.23    -0.105 SA
HETATM    5  CAM 3R9 A 304       9.545  11.208  26.079  1.00 50.04     0.279 C 
HETATM    6  CAF 3R9 A 304       8.868  11.273  24.737  1.00 51.98     0.104 C 
HETATM    7  SAG 3R9 A 304       9.970  10.170  23.840  1.00 59.06    -0.105 SA
HETATM    8  CAJ 3R9 A 304      11.446  10.825  24.567  1.00 46.79     0.280 C 
ENDROOT
BRANCH   2   9
HETATM    9  C   3R9 A 304      12.402   9.059  27.261  1.00 41.68     0.219 C 
HETATM   10  OXT 3R9 A 304      13.394   8.355  26.892  1.00 33.07    -0.646 OA
HETATM   11  O   3R9 A 304      12.307   9.615  28.353  1.00 37.98    -0.646 OA
ENDBRANCH   2   9
BRANCH   8  12
HETATM   12  CAD 3R9 A 304      11.709  12.253  24.213  1.00 37.73     0.113 C 
HETATM   13  SAC 3R9 A 304      12.999  12.845  25.364  1.00 30.82    -0.079 SA
ENDBRANCH   8  12
TORSDOF 2
ENDMDL
MODEL 5
REMARK VINA RESULT:    -4.818      3.427      4.541
REMARK INTER + INTRA:          -6.089
REMARK INTER:                  -5.415
REMARK INTRA:                  -0.675
REMARK CONF_INDEPENDENT:        0.597
REMARK UNBOUND:                -0.675
REMARK  2 active torsions:
REMARK  status: ('A' for Active; 'I' for Inactive)
REMARK    1  A    between atoms: C_1725  and  CA_1727 
REMARK    2  A    between atoms: CAJ_1733  and  CAD_1734 
ROOT
HETATM    1  N   3R9 A 304       7.024   9.799  25.558  1.00 49.44     0.164 N 
HETATM    2  CA  3R9 A 304       6.242  11.078  25.475  1.00 47.52     0.317 C 
HETATM    3  CB  3R9 A 304       5.991  11.698  26.888  1.00 48.87     0.104 C 
HETATM    4  SAH 3R9 A 304       6.609  10.479  28.050  1.00 54.23    -0.105 SA
HETATM    5  CAM 3R9 A 304       7.529   9.430  26.942  1.00 50.04     0.279 C 
HETATM    6  CAF 3R9 A 304       8.984   9.776  27.097  1.00 51.98     0.104 C 
HETATM    7  SAG 3R9 A 304       9.126  10.918  25.714  1.00 59.06    -0.105 SA
HETATM    8  CAJ 3R9 A 304       8.149   9.930  24.616  1.00 46.79     0.280 C 
ENDROOT
BRANCH   2   9
HETATM    9  C   3R9 A 304       4.921  10.859  24.633  1.00 41.68     0.219 C 
HETATM   10  OXT 3R9 A 304       3.779  11.029  25.167  1.00 33.07    -0.646 OA
HETATM   11  O   3R9 A 304       5.102  10.484  23.477  1.00 37.98    -0.646 OA
ENDBRANCH   2   9
BRANCH   8  12
HETATM   12  CAD 3R9 A 304       8.766   8.609  24.286  1.00 37.73     0.113 C 
HETATM   13  SAC 3R9 A 304       7.390   7.486  23.852  1.00 30.82    -0.079 SA
ENDBRANCH   8  12
TORSDOF 2
ENDMDL
MODEL 6
REMARK VINA RESULT:    -4.618      2.082      2.416
REMARK INTER + INTRA:          -5.888
REMARK INTER:                  -5.214
REMARK INTRA:                  -0.674
REMARK CONF_INDEPENDENT:        0.597
REMARK UNBOUND:                -0.674
REMARK  2 active torsions:
REMARK  status: ('A' for Active; 'I' for Inactive)
REMARK    1  A    between atoms: C_1725  and  CA_1727 
REMARK    2  A    between atoms: CAJ_1733  and  CAD_1734 
ROOT
HETATM    1  N   3R9 A 304      10.876  10.101  26.008  1.00 49.44     0.164 N 
HETATM    2  CA  3R9 A 304      11.627   8.853  26.374  1.00 47.52     0.317 C 
HETATM    3  CB  3R9 A 304      11.110   8.236  27.714  1.00 48.87     0.104 C 
HETATM    4  SAH 3R9 A 304       9.927   9.425  28.350  1.00 54.23    -0.105 SA
HETATM    5  CAM 3R9 A 304       9.701  10.444  26.905  1.00 50.04     0.279 C 
HETATM    6  CAF 3R9 A 304       8.399  10.042  26.269  1.00 51.98     0.104 C 
HETATM    7  SAG 3R9 A 304       9.053   8.902  25.042  1.00 59.06    -0.105 SA
HETATM    8  CAJ 3R9 A 304      10.429   9.932  24.614  1.00 46.79     0.280 C 
ENDROOT
BRANCH   2   9
HETATM    9  C   3R9 A 304      13.185   9.126  26.359  1.00 41.68     0.219 C 
HETATM   10  OXT 3R9 A 304      13.939   8.611  27.243  1.00 33.07    -0.646 OA
HETATM   11  O   3R9 A 304      13.568   9.885  25.471  1.00 37.98    -0.646 OA
ENDBRANCH   2   9
BRANCH   8  12
HETATM   12  CAD 3R9 A 304      10.037  11.230  23.986  1.00 37.73     0.113 C 
HETATM   13  SAC 3R9 A 304      11.463  12.357  24.184  1.00 30.82    -0.079 SA
ENDBRANCH   8  12
TORSDOF 2
ENDMDL
MODEL 7
REMARK VINA RESULT:    -4.476      3.308      4.131
REMARK INTER + INTRA:          -5.666
REMARK INTER:                  -5.073
REMARK INTRA:                  -0.594
REMARK CONF_INDEPENDENT:        0.597
REMARK UNBOUND:                -0.594
REMARK  2 active torsions:
REMARK  status: ('A' for Active; 'I' for Inactive)
REMARK    1  A    between atoms: C_1725  and  CA_1727 
REMARK    2  A    between atoms: CAJ_1733  and  CAD_1734 
ROOT
HETATM    1  N   3R9 A 304       8.870  10.452  24.234  1.00 49.44     0.164 N 
HETATM    2  CA  3R9 A 304       7.495  10.638  24.810  1.00 47.52     0.317 C 
HETATM    3  CB  3R9 A 304       7.007   9.362  25.571  1.00 48.87     0.104 C 
HETATM    4  SAH 3R9 A 304       8.266   8.123  25.261  1.00 54.23    -0.105 SA
HETATM    5  CAM 3R9 A 304       9.563   9.153  24.602  1.00 50.04     0.279 C 
HETATM    6  CAF 3R9 A 304      10.569   9.369  25.699  1.00 51.98     0.104 C 
HETATM    7  SAG 3R9 A 304       9.965  10.957  26.292  1.00 59.06    -0.105 SA
HETATM    8  CAJ 3R9 A 304       9.671  11.608  24.672  1.00 46.79     0.280 C 
ENDROOT
BRANCH   2   9
HETATM    9  C   3R9 A 304       6.493  11.133  23.691  1.00 41.68     0.219 C 
HETATM   10  OXT 3R9 A 304       6.714  12.213  23.058  1.00 33.07    -0.646 OA
HETATM   11  O   3R9 A 304       5.503  10.422  23.534  1.00 37.98    -0.646 OA
ENDBRANCH   2   9
BRANCH   8  12
HETATM   12  CAD 3R9 A 304      10.912  11.776  23.856  1.00 37.73     0.113 C 
HETATM   13  SAC 3R9 A 304      12.222  12.321  25.008  1.00 30.82    -0.079 SA
ENDBRANCH   8  12
TORSDOF 2
ENDMDL
MODEL 8
REMARK VINA RESULT:    -4.452      1.574      3.362
REMARK INTER + INTRA:          -5.718
REMARK INTER:                  -5.048
REMARK INTRA:                  -0.669
REMARK CONF_INDEPENDENT:        0.597
REMARK UNBOUND:                -0.669
REMARK  2 active torsions:
REMARK  status: ('A' for Active; 'I' for Inactive)
REMARK    1  A    between atoms: C_1725  and  CA_1727 
REMARK    2  A    between atoms: CAJ_1733  and  CAD_1734 
ROOT
HETATM    1  N   3R9 A 304       8.728   9.407  26.896  1.00 49.44     0.164 N 
HETATM    2  CA  3R9 A 304      10.015   9.966  26.361  1.00 47.52     0.317 C 
HETATM    3  CB  3R9 A 304      10.184   9.676  24.835  1.00 48.87     0.104 C 
HETATM    4  SAH 3R9 A 304       8.809   8.607  24.407  1.00 54.23    -0.105 SA
HETATM    5  CAM 3R9 A 304       7.797   8.804  25.860  1.00 50.04     0.279 C 
HETATM    6  CAF 3R9 A 304       6.687   9.756  25.511  1.00 51.98     0.104 C 
HETATM    7  SAG 3R9 A 304       7.433  11.265  26.145  1.00 59.06    -0.105 SA
HETATM    8  CAJ 3R9 A 304       8.058  10.503  27.617  1.00 46.79     0.280 C 
ENDROOT
BRANCH   2   9
HETATM    9  C   3R9 A 304      11.234   9.476  27.241  1.00 41.68     0.219 C 
HETATM   10  OXT 3R9 A 304      12.020   8.574  26.810  1.00 33.07    -0.646 OA
HETATM   11  O   3R9 A 304      11.315  10.001  28.350  1.00 37.98    -0.646 OA
ENDBRANCH   2   9
BRANCH   8  12
HETATM   12  CAD 3R9 A 304       6.990  10.005  28.536  1.00 37.73     0.113 C 
HETATM   13  SAC 3R9 A 304       7.720   8.619  29.479  1.00 30.82    -0.079 SA
ENDBRANCH   8  12
TORSDOF 2
ENDMDL
MODEL 9
REMARK VINA RESULT:    -4.409      2.967      4.647
REMARK INTER + INTRA:          -5.642
REMARK INTER:                  -5.006
REMARK INTRA:                  -0.636
REMARK CONF_INDEPENDENT:        0.597
REMARK UNBOUND:                -0.636
REMARK  2 active torsions:
REMARK  status: ('A' for Active; 'I' for Inactive)
REMARK    1  A    between atoms: C_1725  and  CA_1727 
REMARK    2  A    between atoms: CAJ_1733  and  CAD_1734 
ROOT
HETATM    1  N   3R9 A 304       8.214  10.492  25.726  1.00 49.44     0.164 N 
HETATM    2  CA  3R9 A 304       7.906  10.168  24.293  1.00 47.52     0.317 C 
HETATM    3  CB  3R9 A 304       9.116  10.480  23.353  1.00 48.87     0.104 C 
HETATM    4  SAH 3R9 A 304      10.324  11.290  24.402  1.00 54.23    -0.105 SA
HETATM    5  CAM 3R9 A 304       9.643  10.921  26.007  1.00 50.04     0.279 C 
HETATM    6  CAF 3R9 A 304      10.443   9.787  26.587  1.00 51.98     0.104 C 
HETATM    7  SAG 3R9 A 304       9.360   8.434  26.104  1.00 59.06    -0.105 SA
HETATM    8  CAJ 3R9 A 304       7.868   9.297  26.514  1.00 46.79     0.280 C 
ENDROOT
BRANCH   2   9
HETATM    9  C   3R9 A 304       6.558  10.867  23.849  1.00 41.68     0.219 C 
HETATM   10  OXT 3R9 A 304       5.464  10.220  23.851  1.00 33.07    -0.646 OA
HETATM   11  O   3R9 A 304       6.680  12.033  23.478  1.00 37.98    -0.646 OA
ENDBRANCH   2   9
BRANCH   8  12
HETATM   12  CAD 3R9 A 304       7.730   9.601  27.971  1.00 37.73     0.113 C 
HETATM   13  SAC 3R9 A 304       6.410  10.857  28.117  1.00 30.82    -0.079 SA
ENDBRANCH   8  12
TORSDOF 2
ENDMDL
