@<TRIPOS>MOLECULE
xray_ligand.pdb
 49 52 0 0 0
SMALL
GASTEIGER

@<TRIPOS>ATOM
      1  N        259.5800   75.6150 -484.0320 N.3     1  LIG1       -0.2868
      2  C        259.3090   74.8330 -482.8220 C.3     1  LIG1        0.0160
      3  C        257.9120   74.2880 -483.1630 C.3     1  LIG1        0.0326
      4  N        256.8610   75.1850 -483.6490 N.am    1  LIG1       -0.2691
      5  C        257.2400   76.4410 -484.1350 C.2     1  LIG1        0.2339
      6  O        256.4140   77.2290 -484.5530 O.2     1  LIG1       -0.2738
      7  C        258.7510   76.8230 -484.1420 C.3     1  LIG1        0.0766
      8  C        255.5600   74.7360 -483.6010 C.ar    1  LIG1        0.0377
      9  C        255.0890   74.2120 -484.7950 C.ar    1  LIG1       -0.0219
     10  C        253.7940   73.7060 -484.9130 C.ar    1  LIG1        0.0427
     11 CL        253.3220   73.0680 -486.4440 Cl      1  LIG1       -0.0835
     12  C        252.9340   73.7290 -483.7950 C.ar    1  LIG1       -0.0433
     13  C        253.3860   74.2610 -482.5600 C.ar    1  LIG1       -0.0586
     14  C        254.7020   74.7650 -482.4470 C.ar    1  LIG1       -0.0402
     15  C        260.9430   76.0340 -484.3620 C.3     1  LIG1        0.0414
     16  C        261.1060   76.0200 -485.8800 C.ar    1  LIG1        0.0524
     17  C        260.1300   75.8620 -486.7960 C.ar    1  LIG1        0.0499
     18  N        260.8040   75.9320 -488.0610 N.ar    1  LIG1       -0.2437
     19  C        262.1530   76.1330 -487.7960 C.ar    1  LIG1        0.0964
     20  N        262.3180   76.1830 -486.4880 N.ar    1  LIG1       -0.3285
     21  C        263.6420   76.3850 -485.8530 C.3     1  LIG1        0.0494
     22  C        264.4400   77.5630 -486.4290 C.ar    1  LIG1       -0.0277
     23  C        263.8120   78.7640 -486.7860 C.ar    1  LIG1       -0.0557
     24  C        264.5480   79.8270 -487.3190 C.ar    1  LIG1       -0.0440
     25  C        265.9460   79.7080 -487.5050 C.ar    1  LIG1        0.0518
     26  C        266.5840   78.5320 -487.1540 C.ar    1  LIG1       -0.0440
     27  C        265.8380   77.4580 -486.6150 C.ar    1  LIG1       -0.0557
     28  C        266.6390   80.7160 -488.0230 C.1     1  LIG1        0.0992
     29  N        267.2540   81.6030 -488.4800 N.1     1  LIG1       -0.1909
     30 H         259.2923   75.4485 -481.9469 H       1  LIG1        0.0442
     31 H         260.0408   74.0862 -482.5950 H       1  LIG1        0.0442
     32 H         258.0501   73.5413 -483.9168 H       1  LIG1        0.0481
     33 H         257.5380   73.9737 -482.2110 H       1  LIG1        0.0481
     34 H         258.9561   77.4691 -483.3141 H       1  LIG1        0.0522
     35 H         258.9809   77.3219 -485.0602 H       1  LIG1        0.0522
     36 H         255.7121   74.1958 -485.6175 H       1  LIG1        0.0651
     37 H         251.9743   73.3582 -483.8757 H       1  LIG1        0.0632
     38 H         252.7542   74.2801 -481.7442 H       1  LIG1        0.0619
     39 H         255.0416   75.1476 -481.5508 H       1  LIG1        0.0636
     40 H         261.1156   77.0225 -483.9905 H       1  LIG1        0.0491
     41 H         261.6482   75.3658 -483.9136 H       1  LIG1        0.0491
     42 H         259.1219   75.7218 -486.6255 H       1  LIG1        0.0848
     43 H         262.8993   76.2272 -488.5025 H       1  LIG1        0.1029
     44 H         264.2176   75.4927 -485.9849 H       1  LIG1        0.0542
     45 H         263.4592   76.6103 -484.8231 H       1  LIG1        0.0542
     46 H         262.7935   78.8652 -486.6539 H       1  LIG1        0.0621
     47 H         264.0689   80.7035 -487.5783 H       1  LIG1        0.0630
     48 H         267.6033   78.4383 -487.2853 H       1  LIG1        0.0630
     49 H         266.3212   76.5844 -486.3535 H       1  LIG1        0.0621
@<TRIPOS>BOND
     1    29    28    3
     2    18    19   ar
     3    18    17   ar
     4    28    25    1
     5    19    20   ar
     6    25    24   ar
     7    25    26   ar
     8    24    23   ar
     9    26    27   ar
    10    17    16   ar
    11    23    22   ar
    12    27    22   ar
    13    20    16   ar
    14    20    21    1
    15    11    10    1
    16    22    21    1
    17    16    15    1
    18    10     9   ar
    19    10    12   ar
    20     9     8   ar
    21     6     5    2
    22    15     1    1
    23     7     5    1
    24     7     1    1
    25     5     4   am
    26     1     2    1
    27    12    13   ar
    28     4     8    1
    29     4     3    1
    30     8    14   ar
    31     3     2    1
    32    13    14   ar
    33     2    30    1
    34     2    31    1
    35     3    32    1
    36     3    33    1
    37     7    34    1
    38     7    35    1
    39     9    36    1
    40    12    37    1
    41    13    38    1
    42    14    39    1
    43    15    40    1
    44    15    41    1
    45    17    42    1
    46    19    43    1
    47    21    44    1
    48    21    45    1
    49    23    46    1
    50    24    47    1
    51    26    48    1
    52    27    49    1
