MODEL 1
REMARK VINA RESULT:    -5.190      0.000      0.000
REMARK INTER + INTRA:          -6.440
REMARK INTER:                  -5.786
REMARK INTRA:                  -0.654
REMARK CONF_INDEPENDENT:        0.597
REMARK UNBOUND:                -0.654
REMARK  2 active torsions:
REMARK  status: ('A' for Active; 'I' for Inactive)
REMARK    1  A    between atoms: C_1725  and  CA_1727 
REMARK    2  A    between atoms: CAJ_1733  and  CAD_1734 
ROOT
HETATM    1  N   3R9 A 304       9.228  10.322  25.953  1.00 49.44     0.164 N 
HETATM    2  CA  3R9 A 304       9.406   9.410  27.133  1.00 47.52     0.317 C 
HETATM    3  CB  3R9 A 304       8.096   9.291  27.978  1.00 48.87     0.104 C 
HETATM    4  SAH 3R9 A 304       6.963  10.478  27.254  1.00 54.23    -0.105 SA
HETATM    5  CAM 3R9 A 304       7.817  10.834  25.730  1.00 50.04     0.279 C 
HETATM    6  CAF 3R9 A 304       7.128  10.064  24.637  1.00 51.98     0.104 C 
HETATM    7  SAG 3R9 A 304       8.216   8.632  24.607  1.00 59.06    -0.105 SA
HETATM    8  CAJ 3R9 A 304       9.702   9.582  24.771  1.00 46.79     0.280 C 
ENDROOT
BRANCH   2   9
HETATM    9  C   3R9 A 304      10.671   9.845  27.977  1.00 41.68     0.219 C 
HETATM   10  OXT 3R9 A 304      11.525   8.981  28.351  1.00 33.07    -0.646 OA
HETATM   11  O   3R9 A 304      10.718  11.041  28.257  1.00 37.98    -0.646 OA
ENDBRANCH   2   9
BRANCH   8  12
HETATM   12  CAD 3R9 A 304       9.970  10.484  23.610  1.00 37.73     0.113 C 
HETATM   13  SAC 3R9 A 304      11.062  11.815  24.227  1.00 30.82    -0.079 SA
ENDBRANCH   8  12
TORSDOF 2
ENDMDL
MODEL 2
REMARK VINA RESULT:    -5.163      1.839      3.356
REMARK INTER + INTRA:          -6.336
REMARK INTER:                  -5.760
REMARK INTRA:                  -0.576
REMARK CONF_INDEPENDENT:        0.597
REMARK UNBOUND:                -0.576
REMARK  2 active torsions:
REMARK  status: ('A' for Active; 'I' for Inactive)
REMARK    1  A    between atoms: C_1725  and  CA_1727 
REMARK    2  A    between atoms: CAJ_1733  and  CAD_1734 
ROOT
HETATM    1  N   3R9 A 304      10.933   9.632  25.704  1.00 49.44     0.164 N 
HETATM    2  CA  3R9 A 304      11.555  10.177  26.957  1.00 47.52     0.317 C 
HETATM    3  CB  3R9 A 304      12.392  11.467  26.677  1.00 48.87     0.104 C 
HETATM    4  SAH 3R9 A 304      12.398  11.641  24.892  1.00 54.23    -0.105 SA
HETATM    5  CAM 3R9 A 304      11.113  10.484  24.461  1.00 50.04     0.279 C 
HETATM    6  CAF 3R9 A 304       9.871  11.279  24.166  1.00 51.98     0.104 C 
HETATM    7  SAG 3R9 A 304       9.090  11.145  25.781  1.00 59.06    -0.105 SA
HETATM    8  CAJ 3R9 A 304       9.502   9.436  25.993  1.00 46.79     0.280 C 
ENDROOT
BRANCH   2   9
HETATM    9  C   3R9 A 304      12.366   9.043  27.706  1.00 41.68     0.219 C 
HETATM   10  OXT 3R9 A 304      13.461   8.609  27.227  1.00 33.07    -0.646 OA
HETATM   11  O   3R9 A 304      11.832   8.615  28.727  1.00 37.98    -0.646 OA
ENDBRANCH   2   9
BRANCH   8  12
HETATM   12  CAD 3R9 A 304       8.845   8.530  25.002  1.00 37.73     0.113 C 
HETATM   13  SAC 3R9 A 304       7.219   9.271  24.618  1.00 30.82    -0.079 SA
ENDBRANCH   8  12
TORSDOF 2
ENDMDL
MODEL 3
REMARK VINA RESULT:    -4.827      1.851      2.095
REMARK INTER + INTRA:          -6.060
REMARK INTER:                  -5.424
REMARK INTRA:                  -0.636
REMARK CONF_INDEPENDENT:        0.597
REMARK UNBOUND:                -0.636
REMARK  2 active torsions:
REMARK  status: ('A' for Active; 'I' for Inactive)
REMARK    1  A    between atoms: C_1725  and  CA_1727 
REMARK    2  A    between atoms: CAJ_1733  and  CAD_1734 
ROOT
HETATM    1  N   3R9 A 304      10.889  10.636  25.907  1.00 49.44     0.164 N 
HETATM    2  CA  3R9 A 304      11.032   9.196  26.305  1.00 47.52     0.317 C 
HETATM    3  CB  3R9 A 304       9.689   8.607  26.849  1.00 48.87     0.104 C 
HETATM    4  SAH 3R9 A 304       8.569  10.005  26.936  1.00 54.23    -0.105 SA
HETATM    5  CAM 3R9 A 304       9.481  11.197  25.974  1.00 50.04     0.279 C 
HETATM    6  CAF 3R9 A 304       8.853  11.250  24.609  1.00 51.98     0.104 C 
HETATM    7  SAG 3R9 A 304       9.965  10.111  23.771  1.00 59.06    -0.105 SA
HETATM    8  CAJ 3R9 A 304      11.426  10.752  24.540  1.00 46.79     0.280 C 
ENDROOT
BRANCH   2   9
HETATM    9  C   3R9 A 304      12.252   9.018  27.296  1.00 41.68     0.219 C 
HETATM   10  OXT 3R9 A 304      13.347   8.516  26.889  1.00 33.07    -0.646 OA
HETATM   11  O   3R9 A 304      12.029   9.361  28.455  1.00 37.98    -0.646 OA
ENDBRANCH   2   9
BRANCH   8  12
HETATM   12  CAD 3R9 A 304      11.729  12.168  24.170  1.00 37.73     0.113 C 
HETATM   13  SAC 3R9 A 304      12.950  12.774  25.387  1.00 30.82    -0.079 SA
ENDBRANCH   8  12
TORSDOF 2
ENDMDL
MODEL 4
REMARK VINA RESULT:    -4.822      3.398      4.465
REMARK INTER + INTRA:          -6.094
REMARK INTER:                  -5.418
REMARK INTRA:                  -0.675
REMARK CONF_INDEPENDENT:        0.597
REMARK UNBOUND:                -0.675
REMARK  2 active torsions:
REMARK  status: ('A' for Active; 'I' for Inactive)
REMARK    1  A    between atoms: C_1725  and  CA_1727 
REMARK    2  A    between atoms: CAJ_1733  and  CAD_1734 
ROOT
HETATM    1  N   3R9 A 304       7.168   9.775  25.384  1.00 49.44     0.164 N 
HETATM    2  CA  3R9 A 304       6.369  11.045  25.431  1.00 47.52     0.317 C 
HETATM    3  CB  3R9 A 304       6.203  11.574  26.893  1.00 48.87     0.104 C 
HETATM    4  SAH 3R9 A 304       6.907  10.295  27.935  1.00 54.23    -0.105 SA
HETATM    5  CAM 3R9 A 304       7.765   9.328  26.707  1.00 50.04     0.279 C 
HETATM    6  CAF 3R9 A 304       9.223   9.685  26.791  1.00 51.98     0.104 C 
HETATM    7  SAG 3R9 A 304       9.264  10.912  25.476  1.00 59.06    -0.105 SA
HETATM    8  CAJ 3R9 A 304       8.229   9.979  24.383  1.00 46.79     0.280 C 
ENDROOT
BRANCH   2   9
HETATM    9  C   3R9 A 304       4.999  10.860  24.663  1.00 41.68     0.219 C 
HETATM   10  OXT 3R9 A 304       3.892  11.037  25.263  1.00 33.07    -0.646 OA
HETATM   11  O   3R9 A 304       5.108  10.502  23.492  1.00 37.98    -0.646 OA
ENDBRANCH   2   9
BRANCH   8  12
HETATM   12  CAD 3R9 A 304       8.837   8.690  23.932  1.00 37.73     0.113 C 
HETATM   13  SAC 3R9 A 304       7.476   7.472  23.855  1.00 30.82    -0.079 SA
ENDBRANCH   8  12
TORSDOF 2
ENDMDL
MODEL 5
REMARK VINA RESULT:    -4.783      1.529      3.110
REMARK INTER + INTRA:          -6.031
REMARK INTER:                  -5.380
REMARK INTRA:                  -0.651
REMARK CONF_INDEPENDENT:        0.597
REMARK UNBOUND:                -0.651
REMARK  2 active torsions:
REMARK  status: ('A' for Active; 'I' for Inactive)
REMARK    1  A    between atoms: C_1725  and  CA_1727 
REMARK    2  A    between atoms: CAJ_1733  and  CAD_1734 
ROOT
HETATM    1  N   3R9 A 304       9.274   9.466  25.154  1.00 49.44     0.164 N 
HETATM    2  CA  3R9 A 304      10.011   9.998  26.350  1.00 47.52     0.317 C 
HETATM    3  CB  3R9 A 304      11.015  11.130  25.958  1.00 48.87     0.104 C 
HETATM    4  SAH 3R9 A 304      10.986  11.180  24.165  1.00 54.23    -0.105 SA
HETATM    5  CAM 3R9 A 304       9.533  10.196  23.849  1.00 50.04     0.279 C 
HETATM    6  CAF 3R9 A 304       8.409  11.143  23.527  1.00 51.98     0.104 C 
HETATM    7  SAG 3R9 A 304       7.673  11.234  25.166  1.00 59.06    -0.105 SA
HETATM    8  CAJ 3R9 A 304       7.841   9.501  25.491  1.00 46.79     0.280 C 
ENDROOT
BRANCH   2   9
HETATM    9  C   3R9 A 304      10.674   8.811  27.159  1.00 41.68     0.219 C 
HETATM   10  OXT 3R9 A 304      11.094   8.993  28.345  1.00 33.07    -0.646 OA
HETATM   11  O   3R9 A 304      10.777   7.756  26.536  1.00 37.98    -0.646 OA
ENDBRANCH   2   9
BRANCH   8  12
HETATM   12  CAD 3R9 A 304       7.026   8.637  24.584  1.00 37.73     0.113 C 
HETATM   13  SAC 3R9 A 304       8.095   7.233  24.104  1.00 30.82    -0.079 SA
ENDBRANCH   8  12
TORSDOF 2
ENDMDL
MODEL 6
REMARK VINA RESULT:    -4.608      2.132      2.508
REMARK INTER + INTRA:          -5.861
REMARK INTER:                  -5.205
REMARK INTRA:                  -0.657
REMARK CONF_INDEPENDENT:        0.597
REMARK UNBOUND:                -0.657
REMARK  2 active torsions:
REMARK  status: ('A' for Active; 'I' for Inactive)
REMARK    1  A    between atoms: C_1725  and  CA_1727 
REMARK    2  A    between atoms: CAJ_1733  and  CAD_1734 
ROOT
HETATM    1  N   3R9 A 304      10.834   9.919  26.243  1.00 49.44     0.164 N 
HETATM    2  CA  3R9 A 304      11.719   8.732  26.492  1.00 47.52     0.317 C 
HETATM    3  CB  3R9 A 304      11.313   7.967  27.794  1.00 48.87     0.104 C 
HETATM    4  SAH 3R9 A 304      10.039   8.978  28.551  1.00 54.23    -0.105 SA
HETATM    5  CAM 3R9 A 304       9.662  10.071  27.195  1.00 50.04     0.279 C 
HETATM    6  CAF 3R9 A 304       8.386   9.585  26.565  1.00 51.98     0.104 C 
HETATM    7  SAG 3R9 A 304       9.110   8.612  25.237  1.00 59.06    -0.105 SA
HETATM    8  CAJ 3R9 A 304      10.359   9.807  24.853  1.00 46.79     0.280 C 
ENDROOT
BRANCH   2   9
HETATM    9  C   3R9 A 304      13.240   9.164  26.456  1.00 41.68     0.219 C 
HETATM   10  OXT 3R9 A 304      14.087   8.610  27.226  1.00 33.07    -0.646 OA
HETATM   11  O   3R9 A 304      13.499  10.077  25.675  1.00 37.98    -0.646 OA
ENDBRANCH   2   9
BRANCH   8  12
HETATM   12  CAD 3R9 A 304       9.816  11.100  24.336  1.00 37.73     0.113 C 
HETATM   13  SAC 3R9 A 304      11.259  12.158  23.961  1.00 30.82    -0.079 SA
ENDBRANCH   8  12
TORSDOF 2
ENDMDL
MODEL 7
REMARK VINA RESULT:    -4.474      3.316      4.133
REMARK INTER + INTRA:          -5.682
REMARK INTER:                  -5.070
REMARK INTRA:                  -0.611
REMARK CONF_INDEPENDENT:        0.597
REMARK UNBOUND:                -0.611
REMARK  2 active torsions:
REMARK  status: ('A' for Active; 'I' for Inactive)
REMARK    1  A    between atoms: C_1725  and  CA_1727 
REMARK    2  A    between atoms: CAJ_1733  and  CAD_1734 
ROOT
HETATM    1  N   3R9 A 304       8.810  10.574  24.137  1.00 49.44     0.164 N 
HETATM    2  CA  3R9 A 304       7.447  10.705  24.753  1.00 47.52     0.317 C 
HETATM    3  CB  3R9 A 304       6.968   9.362  25.395  1.00 48.87     0.104 C 
HETATM    4  SAH 3R9 A 304       8.218   8.157  24.943  1.00 54.23    -0.105 SA
HETATM    5  CAM 3R9 A 304       9.506   9.245  24.365  1.00 50.04     0.279 C 
HETATM    6  CAF 3R9 A 304      10.531   9.351  25.460  1.00 51.98     0.104 C 
HETATM    7  SAG 3R9 A 304       9.944  10.874  26.215  1.00 59.06    -0.105 SA
HETATM    8  CAJ 3R9 A 304       9.623  11.681  24.671  1.00 46.79     0.280 C 
ENDROOT
BRANCH   2   9
HETATM    9  C   3R9 A 304       6.427  11.308  23.706  1.00 41.68     0.219 C 
HETATM   10  OXT 3R9 A 304       5.299  10.755  23.510  1.00 33.07    -0.646 OA
HETATM   11  O   3R9 A 304       6.834  12.296  23.098  1.00 37.98    -0.646 OA
ENDBRANCH   2   9
BRANCH   8  12
HETATM   12  CAD 3R9 A 304      10.850  11.926  23.854  1.00 37.73     0.113 C 
HETATM   13  SAC 3R9 A 304      12.205  12.255  25.035  1.00 30.82    -0.079 SA
ENDBRANCH   8  12
TORSDOF 2
ENDMDL
MODEL 8
REMARK VINA RESULT:    -4.459      1.584      3.369
REMARK INTER + INTRA:          -5.710
REMARK INTER:                  -5.056
REMARK INTRA:                  -0.655
REMARK CONF_INDEPENDENT:        0.597
REMARK UNBOUND:                -0.655
REMARK  2 active torsions:
REMARK  status: ('A' for Active; 'I' for Inactive)
REMARK    1  A    between atoms: C_1725  and  CA_1727 
REMARK    2  A    between atoms: CAJ_1733  and  CAD_1734 
ROOT
HETATM    1  N   3R9 A 304       8.635   9.387  26.964  1.00 49.44     0.164 N 
HETATM    2  CA  3R9 A 304       9.987   9.857  26.508  1.00 47.52     0.317 C 
HETATM    3  CB  3R9 A 304      10.221   9.569  24.990  1.00 48.87     0.104 C 
HETATM    4  SAH 3R9 A 304       8.800   8.605  24.473  1.00 54.23    -0.105 SA
HETATM    5  CAM 3R9 A 304       7.724   8.861  25.870  1.00 50.04     0.279 C 
HETATM    6  CAF 3R9 A 304       6.705   9.893  25.471  1.00 51.98     0.104 C 
HETATM    7  SAG 3R9 A 304       7.520  11.339  26.165  1.00 59.06    -0.105 SA
HETATM    8  CAJ 3R9 A 304       8.005  10.522  27.660  1.00 46.79     0.280 C 
ENDROOT
BRANCH   2   9
HETATM    9  C   3R9 A 304      11.117   9.272  27.449  1.00 41.68     0.219 C 
HETATM   10  OXT 3R9 A 304      11.553   8.091  27.275  1.00 33.07    -0.646 OA
HETATM   11  O   3R9 A 304      11.482  10.027  28.348  1.00 37.98    -0.646 OA
ENDBRANCH   2   9
BRANCH   8  12
HETATM   12  CAD 3R9 A 304       6.855  10.093  28.512  1.00 37.73     0.113 C 
HETATM   13  SAC 3R9 A 304       7.430   8.650  29.475  1.00 30.82    -0.079 SA
ENDBRANCH   8  12
TORSDOF 2
ENDMDL
MODEL 9
REMARK VINA RESULT:    -4.408      2.940      4.619
REMARK INTER + INTRA:          -5.644
REMARK INTER:                  -5.004
REMARK INTRA:                  -0.640
REMARK CONF_INDEPENDENT:        0.597
REMARK UNBOUND:                -0.640
REMARK  2 active torsions:
REMARK  status: ('A' for Active; 'I' for Inactive)
REMARK    1  A    between atoms: C_1725  and  CA_1727 
REMARK    2  A    between atoms: CAJ_1733  and  CAD_1734 
ROOT
HETATM    1  N   3R9 A 304       8.238  10.432  25.759  1.00 49.44     0.164 N 
HETATM    2  CA  3R9 A 304       7.932  10.120  24.322  1.00 47.52     0.317 C 
HETATM    3  CB  3R9 A 304       9.130  10.476  23.382  1.00 48.87     0.104 C 
HETATM    4  SAH 3R9 A 304      10.323  11.300  24.438  1.00 54.23    -0.105 SA
HETATM    5  CAM 3R9 A 304       9.657  10.891  26.040  1.00 50.04     0.279 C 
HETATM    6  CAF 3R9 A 304      10.487   9.769  26.600  1.00 51.98     0.104 C 
HETATM    7  SAG 3R9 A 304       9.436   8.397  26.102  1.00 59.06    -0.105 SA
HETATM    8  CAJ 3R9 A 304       7.925   9.216  26.530  1.00 46.79     0.280 C 
ENDROOT
BRANCH   2   9
HETATM    9  C   3R9 A 304       6.566  10.793  23.893  1.00 41.68     0.219 C 
HETATM   10  OXT 3R9 A 304       5.495  10.109  23.852  1.00 33.07    -0.646 OA
HETATM   11  O   3R9 A 304       6.651  11.977  23.577  1.00 37.98    -0.646 OA
ENDBRANCH   2   9
BRANCH   8  12
HETATM   12  CAD 3R9 A 304       7.786   9.496  27.992  1.00 37.73     0.113 C 
HETATM   13  SAC 3R9 A 304       6.545  10.829  28.151  1.00 30.82    -0.079 SA
ENDBRANCH   8  12
TORSDOF 2
ENDMDL
